*SOIL-PLANT-ATMOSPHERE MODULE OUTPUT FILE

*DSSAT Cropping System Model Ver. 4.7.5.007 -  JAN 21, 2026 10:11:01
!                                                                                                                                                                                        Soil evaporation (mm/d) by soil depth (cm):
!                                                                                                                                                                                       0-10   10-20   20-30   30-40   40-50   50-60   60-70   70-80   80-90
@YEAR DOY   DAS   SRAA  TMAXA  TMINA    REFA    EOAA    EOPA    EOSA    KCAA    KCBA    KEAA    ETAA    EPAA    ESAA    EFAA    EMAA    EOAC    ETAC    EPAC    ESAC    EFAC    EMAC    ES1D    ES2D    ES3D    ES4D    ES5D    ES6D    ES7D    ES8D    ES9D   TRWUD
 2015 103     1  16.80  29.50  21.00 -99.000   4.626   0.000   4.626 -99.000 -99.000 -99.000   3.146   0.000   3.146   0.000   0.000    4.63    3.15    0.00    3.15    0.00    0.00   0.355   0.350   0.351   0.363   0.362   0.346   0.341   0.340   0.339   0.000
 2015 104     2  12.00  27.60  21.40 -99.000   3.278   0.000   3.278 -99.000 -99.000 -99.000   3.278   0.000   3.278   0.000   0.000    7.90    6.42    0.00    6.42    0.00    0.00   1.169   0.517   0.369   0.298   0.250   0.207   0.174   0.154   0.140   0.000
 2015 105     3  12.80  29.20  21.00 -99.000   3.543   0.000   3.543 -99.000 -99.000 -99.000   3.281   0.000   3.281   0.000   0.000   11.45    9.71    0.00    9.71    0.00    0.00   0.362   0.364   0.369   0.384   0.384   0.382   0.356   0.343   0.337   0.000
 2015 106     4  14.70  27.80  19.70 -99.000   3.958   0.000   3.958 -99.000 -99.000 -99.000   3.958   0.000   3.958   0.000   0.000   15.41   13.66    0.00   13.66    0.00    0.00   1.372   0.622   0.442   0.361   0.303   0.262   0.227   0.197   0.172   0.000
 2015 107     5  14.30  29.40  20.10 -99.000   3.940   0.000   3.940 -99.000 -99.000 -99.000   3.940   0.000   3.940   0.000   0.000   19.34   17.60    0.00   17.60    0.00    0.00   1.360   0.616   0.436   0.358   0.300   0.261   0.232   0.203   0.174   0.000
 2015 108     6  16.80  29.90  19.20 -99.000   4.598   0.050   4.548 -99.000 -99.000 -99.000   4.598   0.050   4.548   0.000   0.000   23.94   22.20    0.05   22.15    0.00    0.00   1.563   0.708   0.503   0.411   0.345   0.300   0.267   0.238   0.212   0.005
 2015 109     7  15.50  29.90  19.40 -99.000   4.252   0.108   4.191 -99.000 -99.000 -99.000   3.396   0.108   3.287   0.000   0.000   28.20   25.60    0.16   25.44    0.00    0.00   0.356   0.352   0.357   0.369   0.370   0.370   0.370   0.371   0.371   0.011
 2015 110     8  11.20  29.50  18.90 -99.000   3.035   0.057   2.977 -99.000 -99.000 -99.000   3.035   0.057   2.977   0.000   0.000   31.23   28.63    0.22   28.42    0.00    0.00   0.335   0.325   0.326   0.333   0.332   0.332   0.332   0.332   0.332   0.006
 2015 111     9  15.20  30.10  20.60 -99.000   4.212   0.104   4.107 -99.000 -99.000 -99.000   4.211   0.104   4.107   0.000   0.000   35.44   32.84    0.32   32.52    0.00    0.00   1.456   0.644   0.454   0.364   0.304   0.261   0.229   0.206   0.189   0.010
 2015 112    10  15.80  28.40  19.40 -99.000   4.244   0.228   4.113 -99.000 -99.000 -99.000   3.466   0.228   3.238   0.000   0.000   39.69   36.31    0.55   35.76    0.00    0.00   0.356   0.353   0.358   0.370   0.370   0.364   0.357   0.355   0.355   0.023
 2015 113    11  13.30  29.80  19.90 -99.000   3.625   0.225   3.495 -99.000 -99.000 -99.000   3.531   0.225   3.306   0.000   0.000   43.31   39.84    0.77   39.07    0.00    0.00   0.370   0.359   0.365   0.376   0.377   0.374   0.370   0.362   0.354   0.023
 2015 114    12  13.80  29.70  19.00 -99.000   3.740   0.296   3.567 -99.000 -99.000 -99.000   3.657   0.296   3.361   0.000   0.000   47.05   43.50    1.07   42.43    0.00    0.00   0.368   0.366   0.369   0.383   0.383   0.383   0.383   0.370   0.356   0.030
 2015 115    13  16.80  30.20  20.20 -99.000   4.589   0.452   4.322 -99.000 -99.000 -99.000   3.684   0.452   3.231   0.000   0.000   51.64   47.18    1.52   45.66    0.00    0.00   0.350   0.352   0.352   0.367   0.367   0.367   0.367   0.360   0.350   0.045
 2015 116    14  14.40  29.10  18.70 -99.000   3.819   0.465   3.541 -99.000 -99.000 -99.000   3.686   0.465   3.221   0.000   0.000   55.46   50.87    1.99   48.88    0.00    0.00   0.365   0.352   0.348   0.363   0.363   0.363   0.363   0.357   0.348   0.046
 2015 117    15  21.10  28.40  17.50 -99.000   5.505   0.812   5.013 -99.000 -99.000 -99.000   4.015   0.812   3.203   0.000   0.000   60.96   54.88    2.80   52.08    0.00    0.00   0.365   0.355   0.345   0.360   0.359   0.359   0.359   0.355   0.347   0.081
 2015 118    16  21.10  28.30  17.00 -99.000   5.451   0.525   4.924 -99.000 -99.000 -99.000   5.447   0.525   4.922   0.000   0.000   66.42   60.33    3.32   57.00    0.00    0.00   1.756   0.761   0.531   0.434   0.364   0.316   0.281   0.253   0.226   0.053
 2015 119    17  21.60  28.00  14.80 -99.000   5.470   1.000   4.851 -99.000 -99.000 -99.000   4.289   1.000   3.289   0.000   0.000   71.89   64.62    4.32   60.29    0.00    0.00   0.370   0.351   0.357   0.369   0.370   0.370   0.370   0.371   0.362   0.100
 2015 120    18  22.00   8.60   2.40 -99.000   3.755   0.477   3.274 -99.000 -99.000 -99.000   3.748   0.477   3.272   0.000   0.000   75.64   68.37    4.80   63.57    0.00    0.00   1.149   0.507   0.362   0.294   0.243   0.210   0.187   0.169   0.152   0.048
 2015 121    19  16.80  29.10  13.00 -99.000   4.224   0.863   3.683 -99.000 -99.000 -99.000   4.084   0.863   3.222   0.000   0.000   79.86   72.45    5.66   66.79    0.00    0.00   0.357   0.353   0.358   0.369   0.360   0.357   0.357   0.357   0.353   0.086
 2015 122    20  18.00  28.40  14.50 -99.000   4.504   1.061   3.826 -99.000 -99.000 -99.000   4.188   1.061   3.126   0.000   0.000   84.37   76.64    6.72   69.91    0.00    0.00   0.341   0.341   0.343   0.357   0.351   0.349   0.349   0.349   0.346   0.106
 2015 123    21  15.90  28.00  14.70 -99.000   3.941   0.876   3.273 -99.000 -99.000 -99.000   3.936   0.876   3.060   0.000   0.000   88.31   80.57    7.60   72.97    0.00    0.00   0.329   0.333   0.333   0.348   0.344   0.344   0.343   0.343   0.342   0.088
 2015 124    22   9.80  26.40  14.50 -99.000   2.370   0.435   1.933 -99.000 -99.000 -99.000   2.366   0.435   1.931   0.000   0.000   90.68   82.94    8.04   74.90    0.00    0.00   0.223   0.213   0.207   0.217   0.215   0.214   0.214   0.214   0.213   0.044
 2015 125    23  13.80  28.00  15.40 -99.000   3.422   0.752   2.667 -99.000 -99.000 -99.000   3.417   0.752   2.664   0.000   0.000   94.10   86.36    8.79   77.57    0.00    0.00   0.988   0.426   0.282   0.227   0.188   0.162   0.143   0.130   0.119   0.075
 2015 126    24   8.70  26.60  16.10 -99.000   2.111   0.567   1.542 -99.000 -99.000 -99.000   2.107   0.567   1.540   0.000   0.000   96.21   88.46    9.35   79.11    0.00    0.00   0.553   0.247   0.171   0.137   0.114   0.096   0.082   0.074   0.067   0.057
 2015 127    25  16.20  27.70  15.80 -99.000   3.944   1.228   2.711 -99.000 -99.000 -99.000   3.935   1.228   2.707   0.000   0.000  100.16   92.40   10.58   81.82    0.00    0.00   0.304   0.303   0.307   0.319   0.319   0.307   0.289   0.282   0.277   0.123
 2015 128    26  14.50  28.40  17.20 -99.000   3.560   1.286   2.270 -99.000 -99.000 -99.000   3.552   1.286   2.265   0.000   0.000  103.72   95.95   11.87   84.08    0.00    0.00   0.248   0.250   0.251   0.263   0.264   0.258   0.248   0.243   0.240   0.129
 2015 129    27  13.50  26.50  16.30 -99.000   3.188   1.298   1.886 -99.000 -99.000 -99.000   3.180   1.298   1.882   0.000   0.000  106.90   99.13   13.17   85.96    0.00    0.00   0.203   0.206   0.206   0.217   0.217   0.214   0.208   0.205   0.205   0.130
 2015 130    28  16.40  28.20  15.40 -99.000   3.888   1.719   2.163 -99.000 -99.000 -99.000   3.623   1.466   2.157   0.000   0.000  110.79  102.75   14.63   88.12    0.00    0.00   0.230   0.235   0.234   0.247   0.248   0.245   0.241   0.239   0.239   0.147
 2015 131    29   4.60  21.40  15.80 -99.000   1.005   0.456   0.547 -99.000 -99.000 -99.000   1.002   0.456   0.546   0.000   0.000  111.80  103.75   15.09   88.67    0.00    0.00   0.061   0.061   0.061   0.064   0.063   0.061   0.059   0.059   0.059   0.046
 2015 132    30   9.00  22.30  17.20 -99.000   2.013   0.948   1.062 -99.000 -99.000 -99.000   2.007   0.948   1.059   0.000   0.000  113.81  105.76   16.04   89.73    0.00    0.00   0.122   0.119   0.120   0.124   0.120   0.116   0.114   0.113   0.112   0.095
 2015 133    31  10.90  24.80  15.60 -99.000   2.463   1.221   1.241 -99.000 -99.000 -99.000   2.454   1.221   1.233   0.000   0.000  116.27  108.22   17.26   90.96    0.00    0.00   0.137   0.138   0.138   0.144   0.141   0.136   0.134   0.132   0.132   0.122
 2015 134    32  12.90  26.90  14.20 -99.000   2.941   1.513   1.429 -99.000 -99.000 -99.000   2.931   1.513   1.418   0.000   0.000  119.22  111.15   18.77   92.38    0.00    0.00   0.163   0.159   0.161   0.165   0.161   0.156   0.153   0.151   0.149   0.151
 2015 135    33  12.10  26.20  13.40 -99.000   2.721   1.407   1.318 -99.000 -99.000 -99.000   2.711   1.407   1.305   0.000   0.000  121.94  113.86   20.18   93.68    0.00    0.00   0.463   0.205   0.147   0.118   0.097   0.083   0.073   0.063   0.056   0.141
 2015 136    34  10.00  24.90  14.10 -99.000   2.218   1.181   1.044 -99.000 -99.000 -99.000   2.209   1.181   1.028   0.000   0.000  124.16  116.07   21.36   94.71    0.00    0.00   0.114   0.112   0.114   0.118   0.118   0.118   0.117   0.110   0.108   0.118
 2015 137    35  15.70  27.00  15.10 -99.000   3.592   1.929   1.676 -99.000 -99.000 -99.000   3.578   1.929   1.650   0.000   0.000  127.75  119.65   23.29   96.36    0.00    0.00   0.180   0.179   0.180   0.188   0.189   0.189   0.187   0.180   0.177   0.193
 2015 138    36  14.30  27.50  16.10 -99.000   3.309   1.793   1.533 -99.000 -99.000 -99.000   3.297   1.793   1.504   0.000   0.001  131.06  122.94   25.08   97.86    0.00    0.00   0.161   0.163   0.163   0.171   0.172   0.172   0.171   0.167   0.165   0.179
 2015 139    37  12.80  27.00  19.80 -99.000   3.027   1.633   1.415 -99.000 -99.000 -99.000   3.017   1.633   1.384   0.000   0.001  134.08  125.96   26.71   99.25    0.00    0.00   0.158   0.151   0.147   0.155   0.156   0.157   0.156   0.153   0.151   0.163
 2015 140    38  14.00  26.40  16.80 -99.000   3.227   1.709   1.548 -99.000 -99.000 -99.000   3.214   1.709   1.505   0.000   0.002  137.31  129.17   28.42  100.75    0.00    0.00   0.179   0.168   0.159   0.166   0.167   0.168   0.168   0.165   0.163   0.171
 2015 141    39  15.50  26.70  15.70 -99.000   3.546   1.890   1.699 -99.000 -99.000 -99.000   3.531   1.890   1.640   0.000   0.003  140.86  132.70   30.31  102.39    0.00    0.01   0.186   0.182   0.175   0.183   0.183   0.184   0.184   0.183   0.181   0.189
 2015 142    40  13.50  26.60  16.10 -99.000   3.091   1.642   1.489 -99.000 -99.000 -99.000   3.078   1.642   1.436   0.000   0.003  143.95  135.78   31.95  103.83    0.00    0.01   0.166   0.161   0.160   0.165   0.159   0.157   0.157   0.156   0.155   0.164
 2015 143    41  12.20  26.80  18.70 -99.000   2.866   1.503   1.403 -99.000 -99.000 -99.000   2.854   1.503   1.351   0.000   0.003  146.81  138.63   33.46  105.18    0.00    0.01   0.154   0.152   0.154   0.158   0.149   0.147   0.146   0.146   0.145   0.150
 2015 144    42  14.70  28.20  18.10 -99.000   3.486   1.833   1.707 -99.000 -99.000 -99.000   3.471   1.833   1.639   0.000   0.003  150.30  142.11   35.29  106.82    0.00    0.02   0.182   0.182   0.183   0.189   0.182   0.181   0.180   0.180   0.180   0.183
 2015 145    43  16.20  28.40  19.50 -99.000   3.888   2.036   1.914 -99.000 -99.000 -99.000   3.873   2.036   1.836   0.000   0.003  154.19  145.98   37.32  108.65    0.00    0.02   0.199   0.201   0.201   0.211   0.206   0.205   0.204   0.204   0.204   0.204
 2015 146    44  16.40  28.20  18.90 -99.000   3.907   2.036   1.937 -99.000 -99.000 -99.000   3.892   2.036   1.855   0.000   0.003  158.09  149.87   39.36  110.51    0.00    0.02   0.208   0.205   0.207   0.215   0.214   0.207   0.201   0.199   0.199   0.204
 2015 147    45  14.10  28.30  18.90 -99.000   3.377   1.738   1.701 -99.000 -99.000 -99.000   3.363   1.738   1.625   0.000   0.003  161.47  153.23   41.10  112.13    0.00    0.03   0.184   0.180   0.182   0.189   0.189   0.182   0.175   0.173   0.172   0.174
 2015 148    46  14.20  27.70  12.20 -99.000   3.203   1.638   1.629 -99.000 -99.000 -99.000   3.188   1.638   1.550   0.000   0.004  164.67  156.42   42.74  113.68    0.00    0.03   0.171   0.170   0.171   0.178   0.179   0.174   0.170   0.169   0.169   0.164
 2015 149    47  14.70  27.20  10.40 -99.000   3.244   1.664   1.647 -99.000 -99.000 -99.000   3.229   1.664   1.565   0.000   0.004  167.92  159.65   44.40  115.25    0.00    0.03   0.169   0.170   0.170   0.179   0.180   0.177   0.173   0.173   0.173   0.166
 2015 150    48  16.40  29.00  11.00 -99.000   3.715   1.895   1.898 -99.000 -99.000 -99.000   3.698   1.895   1.803   0.000   0.004  171.63  163.35   46.30  117.05    0.00    0.04   0.191   0.195   0.195   0.205   0.207   0.204   0.202   0.202   0.202   0.190
 2015 151    49  16.50  30.70  12.00 -99.000   3.842   1.945   1.981 -99.000 -99.000 -99.000   3.825   1.945   1.880   0.000   0.003  175.47  167.17   48.24  118.93    0.00    0.04   0.196   0.202   0.201   0.214   0.216   0.214   0.213   0.213   0.213   0.195
 2015 152    50  14.80  29.60  12.40 -99.000   3.412   1.715   1.777 -99.000 -99.000 -99.000   3.155   1.473   1.682   0.000   0.003  178.89  170.33   49.71  120.61    0.00    0.04   0.191   0.190   0.180   0.187   0.188   0.187   0.187   0.186   0.186   0.147
 2015 153    51  15.30  28.70  16.60 -99.000   3.624   1.805   1.909 -99.000 -99.000 -99.000   3.610   1.805   1.805   0.000   0.003  182.51  173.94   51.52  122.42    0.00    0.05   0.214   0.208   0.194   0.199   0.199   0.199   0.198   0.198   0.198   0.180
 2015 154    52  14.20  27.70  16.20 -99.000   3.312   1.631   1.767 -99.000 -99.000 -99.000   3.298   1.631   1.667   0.000   0.003  185.82  177.24   53.15  124.09    0.00    0.05   0.188   0.187   0.178   0.186   0.186   0.186   0.186   0.186   0.186   0.163
 2015 155    53  16.10  27.10  15.40 -99.000   3.704   1.805   2.000 -99.000 -99.000 -99.000   3.689   1.805   1.884   0.000   0.003  189.53  180.93   54.95  125.97    0.00    0.06   0.206   0.208   0.201   0.211   0.211   0.211   0.211   0.211   0.211   0.181
 2015 156    54  15.40  27.10  15.40 -99.000   3.541   1.708   1.935 -99.000 -99.000 -99.000   3.527   1.708   1.818   0.000   0.003  193.07  184.45   56.66  127.79    0.00    0.06   0.209   0.206   0.206   0.203   0.200   0.199   0.199   0.199   0.198   0.171
 2015 157    55  15.60  27.80  15.60 -99.000   3.641   1.720   2.035 -99.000 -99.000 -99.000   3.627   1.720   1.908   0.000   0.003  196.71  188.08   58.38  129.70    0.00    0.06   0.223   0.217   0.219   0.212   0.208   0.207   0.207   0.207   0.207   0.172
 2015 158    56  15.20  27.70  15.90 -99.000   3.545   1.662   2.004 -99.000 -99.000 -99.000   3.532   1.662   1.869   0.000   0.004  200.25  191.61   60.05  131.57    0.00    0.07   0.209   0.208   0.209   0.209   0.207   0.207   0.207   0.207   0.207   0.166
 2015 159    57  15.10  28.00  14.50 -99.000   3.494   1.621   1.998 -99.000 -99.000 -99.000   3.480   1.621   1.859   0.000   0.004  203.75  195.09   61.67  133.43    0.00    0.07   0.203   0.204   0.204   0.209   0.208   0.208   0.208   0.208   0.208   0.162
 2015 160    58  16.00  28.30  14.20 -99.000   3.705   1.701   2.142 -99.000 -99.000 -99.000   3.690   1.701   1.989   0.000   0.004  207.45  198.78   63.37  135.41    0.00    0.07   0.226   0.223   0.225   0.231   0.223   0.218   0.216   0.214   0.214   0.170
 2015 161    59  10.80  27.40  14.70 -99.000   2.495   1.134   1.458 -99.000 -99.000 -99.000   2.485   1.134   1.350   0.000   0.004  209.95  201.27   64.50  136.76    0.00    0.08   0.155   0.152   0.153   0.159   0.152   0.147   0.145   0.144   0.144   0.113
 2015 162    60  15.20  28.30  15.60 -99.000   3.570   1.606   2.108 -99.000 -99.000 -99.000   3.557   1.606   1.950   0.000   0.004  213.52  204.82   66.11  138.71    0.00    0.08   0.218   0.216   0.217   0.226   0.219   0.215   0.213   0.213   0.213   0.161
 2015 163    61  13.20  27.70  16.80 -99.000   3.105   1.382   1.853 -99.000 -99.000 -99.000   3.093   1.382   1.711   0.000   0.004  216.62  207.92   67.49  140.43    0.00    0.08   0.195   0.190   0.193   0.200   0.197   0.190   0.184   0.182   0.182   0.138
 2015 164    62  15.00  28.70  14.70 -99.000   3.525   1.551   2.128 -99.000 -99.000 -99.000   3.512   1.551   1.962   0.000   0.003  220.15  211.43   69.04  142.39    0.00    0.09   0.223   0.218   0.220   0.228   0.228   0.219   0.211   0.208   0.207   0.155
 2015 165    63  15.20  28.80  14.20 -99.000   3.558   1.545   2.173 -99.000 -99.000 -99.000   3.545   1.545   2.000   0.000   0.003  223.70  214.97   70.59  144.39    0.00    0.09   0.221   0.220   0.221   0.230   0.231   0.225   0.218   0.217   0.217   0.155
 2015 166    64  14.90  29.00  15.60 -99.000   3.530   1.505   2.191 -99.000 -99.000 -99.000   3.518   1.505   2.013   0.000   0.003  227.23  218.49   72.09  146.40    0.00    0.09   0.218   0.220   0.219   0.230   0.231   0.227   0.223   0.223   0.223   0.151
 2015 167    65  13.50  28.80  14.90 -99.000   3.172   1.326   2.001 -99.000 -99.000 -99.000   3.161   1.326   1.835   0.000   0.003  230.41  221.65   73.42  148.24    0.00    0.10   0.211   0.207   0.198   0.206   0.207   0.204   0.201   0.201   0.201   0.133
 2015 168    66  11.60  28.60  16.10 -99.000   2.787   0.925   2.025 -99.000 -99.000 -99.000   2.778   0.925   1.854   0.000   0.003  233.19  224.43   74.34  150.09    0.00    0.10   0.218   0.211   0.198   0.206   0.207   0.206   0.203   0.203   0.203   0.092
 2015 169    67  13.40  28.70  15.70 -99.000   3.204   0.916   2.555 -99.000 -99.000 -99.000   3.196   0.916   2.280   0.000   0.004  236.40  227.63   75.26  152.37    0.00    0.10   0.259   0.255   0.244   0.254   0.255   0.254   0.253   0.253   0.253   0.092
 2015 170    68  13.60  27.20  15.40 -99.000   3.179   0.748   2.701 -99.000 -99.000 -99.000   3.108   0.748   2.360   0.000   0.008  239.58  230.73   76.00  154.73    0.00    0.11   0.261   0.261   0.253   0.265   0.265   0.264   0.264   0.264   0.264   0.075
 2015 171    69  12.90  25.90  12.50 -99.000   2.893   0.523   2.570 -99.000 -99.000 -99.000   2.733   0.523   2.211   0.000   0.011  242.47  233.47   76.53  156.94    0.00    0.12   0.240   0.244   0.237   0.249   0.249   0.248   0.248   0.248   0.248   0.052
 2015 172    70  14.00  24.30  14.80 -99.000   3.131   0.432   2.871 -99.000 -99.000 -99.000   2.875   0.432   2.443   0.000   0.013  245.60  236.34   76.96  159.38    0.00    0.14   0.287   0.277   0.261   0.271   0.271   0.269   0.269   0.269   0.269   0.043
 2015 173    71  13.30  26.20  13.00 -99.000   3.019   0.316   2.832 -99.000 -99.000 -99.000   2.707   0.316   2.391   0.000   0.013  248.62  239.05   77.27  161.77    0.00    0.15   0.289   0.273   0.256   0.266   0.265   0.262   0.260   0.260   0.260   0.032
 2015 174    72  14.40  26.30  14.60 -99.000   3.303   0.261   3.150 -99.000 -99.000 -99.000   2.908   0.261   2.647   0.000   0.012  251.92  241.96   77.54  164.42    0.00    0.16   0.308   0.298   0.285   0.299   0.299   0.295   0.288   0.288   0.288   0.026
 2015 175    73  11.90  26.20  13.10 -99.000   2.687   0.160   2.594 -99.000 -99.000 -99.000   2.330   0.160   2.170   0.000   0.011  254.61  244.29   77.70  166.59    0.00    0.17   0.247   0.243   0.236   0.247   0.246   0.243   0.236   0.236   0.236   0.016

*DSSAT Cropping System Model Ver. 4.7.5.007 -  JAN 21, 2026 10:11:01
!                                                                                                                                                                                        Soil evaporation (mm/d) by soil depth (cm):
!                                                                                                                                                                                       0-10   10-20   20-30   30-40   40-50   50-60   60-70   70-80   80-90
@YEAR DOY   DAS   SRAA  TMAXA  TMINA    REFA    EOAA    EOPA    EOSA    KCAA    KCBA    KEAA    ETAA    EPAA    ESAA    EFAA    EMAA    EOAC    ETAC    EPAC    ESAC    EFAC    EMAC    ES1D    ES2D    ES3D    ES4D    ES5D    ES6D    ES7D    ES8D    ES9D   TRWUD
 2015 126     1   8.70  26.60  16.10 -99.000   2.235   0.000   2.235 -99.000 -99.000 -99.000   2.235   0.000   2.235   0.000   0.000    2.23    2.23    0.00    2.23    0.00    0.00   0.257   0.245   0.246   0.255   0.255   0.255   0.244   0.240   0.239   0.000
 2015 127     2  16.20  27.70  15.80 -99.000   4.264   0.000   4.264 -99.000 -99.000 -99.000   4.264   0.000   4.264   0.000   0.000    6.50    6.50    0.00    6.50    0.00    0.00   1.515   0.668   0.475   0.385   0.322   0.280   0.233   0.203   0.183   0.000
 2015 128     3  14.50  28.40  17.20 -99.000   3.865   0.000   3.865 -99.000 -99.000 -99.000   3.210   0.000   3.210   0.000   0.000   10.36    9.71    0.00    9.71    0.00    0.00   0.356   0.353   0.357   0.369   0.369   0.369   0.354   0.344   0.340   0.000
 2015 129     4  13.50  26.50  16.30 -99.000   3.486   0.000   3.486 -99.000 -99.000 -99.000   3.126   0.000   3.126   0.000   0.000   13.85   12.84    0.00   12.84    0.00    0.00   0.343   0.343   0.344   0.357   0.357   0.357   0.347   0.340   0.338   0.000
 2015 130     5  16.40  28.20  15.40 -99.000   4.281   0.000   4.281 -99.000 -99.000 -99.000   3.203   0.000   3.203   0.000   0.000   18.13   16.04    0.00   16.04    0.00    0.00   0.364   0.355   0.359   0.370   0.370   0.363   0.348   0.339   0.335   0.000
 2015 131     6   4.60  21.40  15.80 -99.000   1.115   0.012   1.102 -99.000 -99.000 -99.000   1.114   0.012   1.102   0.000   0.000   19.25   17.15    0.01   17.14    0.00    0.00   0.389   0.172   0.123   0.099   0.083   0.071   0.061   0.055   0.050   0.001
 2015 132     7   9.00  22.30  17.20 -99.000   2.229   0.029   2.200 -99.000 -99.000 -99.000   2.229   0.029   2.200   0.000   0.000   21.47   19.38    0.04   19.34    0.00    0.00   0.242   0.237   0.239   0.247   0.247   0.247   0.247   0.247   0.247   0.003
 2015 133     8  10.90  24.80  15.60 -99.000   2.735   0.044   2.690 -99.000 -99.000 -99.000   2.735   0.044   2.690   0.000   0.000   24.21   22.12    0.08   22.03    0.00    0.00   0.289   0.291   0.291   0.303   0.303   0.303   0.303   0.303   0.303   0.004
 2015 134     9  12.90  26.90  14.20 -99.000   3.272   0.094   3.205 -99.000 -99.000 -99.000   3.271   0.094   3.177   0.000   0.000   27.48   25.39    0.18   25.21    0.00    0.00   0.341   0.345   0.343   0.358   0.358   0.358   0.358   0.358   0.358   0.009
 2015 135    10  12.10  26.20  13.40 -99.000   3.015   0.073   2.941 -99.000 -99.000 -99.000   3.014   0.073   2.941   0.000   0.000   30.50   28.40    0.25   28.15    0.00    0.00   0.328   0.322   0.325   0.336   0.335   0.330   0.323   0.321   0.321   0.007
 2015 136    11  10.00  24.90  14.10 -99.000   2.481   0.071   2.410 -99.000 -99.000 -99.000   2.481   0.071   2.410   0.000   0.000   32.98   30.88    0.32   30.56    0.00    0.00   0.273   0.265   0.268   0.276   0.276   0.270   0.262   0.260   0.259   0.007
 2015 137    12  15.70  27.00  15.10 -99.000   4.008   0.228   3.876 -99.000 -99.000 -99.000   3.371   0.228   3.143   0.000   0.000   36.99   34.25    0.55   33.70    0.00    0.00   0.350   0.345   0.346   0.359   0.359   0.352   0.346   0.344   0.343   0.023
 2015 138    13  14.30  27.50  16.10 -99.000   3.687   0.238   3.549 -99.000 -99.000 -99.000   3.316   0.238   3.078   0.000   0.000   40.67   37.57    0.79   36.78    0.00    0.00   0.338   0.337   0.336   0.350   0.350   0.346   0.342   0.340   0.339   0.024
 2015 139    14  12.80  27.00  19.80 -99.000   3.361   0.264   3.206 -99.000 -99.000 -99.000   3.360   0.264   3.096   0.000   0.000   44.03   40.93    1.05   39.88    0.00    0.00   0.360   0.351   0.337   0.348   0.347   0.343   0.339   0.336   0.335   0.026
 2015 140    15  14.00  26.40  16.80 -99.000   3.583   0.353   3.375 -99.000 -99.000 -99.000   3.466   0.353   3.114   0.000   0.000   47.62   44.40    1.41   42.99    0.00    0.00   0.372   0.367   0.341   0.348   0.344   0.341   0.336   0.332   0.332   0.035
 2015 141    16  15.50  26.70  15.70 -99.000   3.924   0.465   3.647 -99.000 -99.000 -99.000   3.533   0.465   3.069   0.000   0.000   51.54   47.93    1.87   46.06    0.00    0.00   0.353   0.352   0.335   0.344   0.342   0.339   0.336   0.334   0.334   0.046
 2015 142    17  13.50  26.60  16.10 -99.000   3.403   0.284   3.118 -99.000 -99.000 -99.000   3.401   0.284   3.117   0.000   0.000   54.94   51.33    2.15   49.17    0.00    0.00   0.363   0.354   0.350   0.359   0.355   0.338   0.334   0.332   0.332   0.028
 2015 143    18  12.20  26.80  18.70 -99.000   3.145   0.319   2.824 -99.000 -99.000 -99.000   3.143   0.319   2.824   0.000   0.000   58.09   54.47    2.47   52.00    0.00    0.00   0.325   0.316   0.320   0.330   0.327   0.307   0.301   0.299   0.299   0.032
 2015 144    19  14.70  28.20  18.10 -99.000   3.800   0.694   3.327 -99.000 -99.000 -99.000   3.797   0.694   3.102   0.000   0.000   61.89   58.27    3.17   55.10    0.00    0.00   0.348   0.344   0.345   0.358   0.355   0.340   0.337   0.337   0.337   0.069
 2015 145    20  16.20  28.40  19.50 -99.000   4.210   0.968   3.595 -99.000 -99.000 -99.000   3.825   0.773   3.051   0.000   0.000   66.10   62.09    3.94   58.15    0.00    0.00   0.335   0.335   0.335   0.349   0.348   0.338   0.337   0.337   0.337   0.077
 2015 146    21  16.40  28.20  18.90 -99.000   4.220   1.008   3.575 -99.000 -99.000 -99.000   3.615   0.602   3.013   0.000   0.000   70.32   65.71    4.54   61.17    0.00    0.00   0.325   0.330   0.327   0.343   0.342   0.337   0.337   0.335   0.335   0.060
 2015 147    22  14.10  28.30  18.90 -99.000   3.626   0.569   3.061 -99.000 -99.000 -99.000   3.602   0.549   3.053   0.000   0.000   73.95   69.31    5.09   64.22    0.00    0.00   0.353   0.347   0.336   0.343   0.340   0.335   0.335   0.332   0.332   0.055
 2015 148    23  14.20  27.70  12.20 -99.000   3.461   0.583   2.874 -99.000 -99.000 -99.000   3.456   0.583   2.872   0.000   0.000   77.41   72.77    5.68   67.09    0.00    0.00   0.340   0.331   0.316   0.319   0.317   0.314   0.313   0.312   0.311   0.058
 2015 149    24  14.70  27.20  10.40 -99.000   3.480   0.678   2.798 -99.000 -99.000 -99.000   3.474   0.678   2.796   0.000   0.000   80.89   76.24    6.35   69.89    0.00    0.00   0.336   0.324   0.314   0.310   0.305   0.303   0.303   0.303   0.300   0.068
 2015 150    25  16.40  29.00  11.00 -99.000   3.978   0.882   3.112 -99.000 -99.000 -99.000   3.971   0.882   3.089   0.000   0.000   84.86   80.21    7.24   72.98    0.00    0.00   0.363   0.354   0.348   0.344   0.338   0.336   0.336   0.336   0.334   0.088
 2015 151    26  16.50  30.70  12.00 -99.000   4.086   1.029   3.123 -99.000 -99.000 -99.000   4.078   1.029   3.049   0.000   0.000   88.95   84.29    8.27   76.02    0.00    0.00   0.345   0.341   0.336   0.340   0.337   0.337   0.337   0.337   0.337   0.103
 2015 152    27  14.80  29.60  12.40 -99.000   3.596   0.974   2.626 -99.000 -99.000 -99.000   3.589   0.974   2.615   0.000   0.000   92.55   87.88    9.24   78.64    0.00    0.00   0.309   0.296   0.285   0.290   0.287   0.287   0.287   0.287   0.287   0.097
 2015 153    28  15.30  28.70  16.60 -99.000   3.795   1.141   2.658 -99.000 -99.000 -99.000   3.787   1.141   2.646   0.000   0.000   96.34   91.67   10.38   81.28    0.00    0.00   0.314   0.300   0.286   0.294   0.291   0.291   0.291   0.290   0.288   0.114
 2015 154    29  14.20  27.70  16.20 -99.000   3.434   1.199   2.238 -99.000 -99.000 -99.000   3.426   1.199   2.227   0.000   0.000   99.77   95.09   11.58   83.51    0.00    0.00   0.253   0.248   0.240   0.249   0.249   0.249   0.249   0.247   0.243   0.120
 2015 155    30  16.10  27.10  15.40 -99.000   3.807   1.510   2.299 -99.000 -99.000 -99.000   3.646   1.359   2.287   0.000   0.000  103.58   98.74   12.94   85.80    0.00    0.00   0.252   0.253   0.247   0.258   0.258   0.258   0.257   0.254   0.250   0.136
 2015 156    31  15.40  27.10  15.40 -99.000   3.629   1.477   2.154 -99.000 -99.000 -99.000   3.340   1.198   2.143   0.000   0.000  107.21  102.08   14.14   87.94    0.00    0.00   0.251   0.246   0.233   0.238   0.237   0.237   0.236   0.233   0.230   0.120
 2015 157    32  15.60  27.80  15.60 -99.000   3.726   1.532   2.195 -99.000 -99.000 -99.000   3.716   1.532   2.184   0.000   0.000  110.94  105.79   15.67   90.13    0.00    0.00   0.261   0.255   0.238   0.243   0.241   0.241   0.241   0.235   0.231   0.153
 2015 158    33  15.20  27.70  15.90 -99.000   3.607   1.570   2.038 -99.000 -99.000 -99.000   3.596   1.570   2.026   0.000   0.000  114.54  109.39   17.24   92.15    0.00    0.00   0.231   0.230   0.219   0.228   0.228   0.228   0.228   0.219   0.215   0.157
 2015 159    34  15.10  28.00  14.50 -99.000   3.540   1.592   1.949 -99.000 -99.000 -99.000   3.530   1.592   1.938   0.000   0.000  118.08  112.92   18.83   94.09    0.00    0.00   0.214   0.217   0.210   0.219   0.220   0.220   0.220   0.211   0.206   0.159
 2015 160    35  16.00  28.30  14.20 -99.000   3.747   1.703   2.049 -99.000 -99.000 -99.000   3.736   1.703   2.032   0.000   0.000  121.83  116.66   20.53   96.12    0.00    0.00   0.236   0.233   0.233   0.229   0.226   0.224   0.224   0.215   0.211   0.170
 2015 161    36  10.80  27.40  14.70 -99.000   2.524   1.133   1.401 -99.000 -99.000 -99.000   2.517   1.133   1.384   0.000   0.000  124.36  119.17   21.67   97.51    0.00    0.00   0.163   0.159   0.161   0.155   0.152   0.151   0.151   0.148   0.142   0.113
 2015 162    37  15.20  28.30  15.60 -99.000   3.598   1.658   1.962 -99.000 -99.000 -99.000   3.587   1.658   1.929   0.000   0.000  127.95  122.76   23.32   99.43    0.00    0.00   0.218   0.216   0.217   0.217   0.214   0.214   0.214   0.214   0.204   0.166
 2015 163    38  13.20  27.70  16.80 -99.000   3.127   1.441   1.705 -99.000 -99.000 -99.000   3.118   1.441   1.677   0.000   0.000  131.08  125.88   24.77  101.11    0.00    0.00   0.195   0.190   0.193   0.191   0.184   0.183   0.182   0.182   0.177   0.144
 2015 164    39  15.00  28.70  14.70 -99.000   3.552   1.609   1.970 -99.000 -99.000 -99.000   3.541   1.609   1.932   0.000   0.000  134.63  129.42   26.38  103.04    0.00    0.00   0.224   0.219   0.221   0.222   0.212   0.210   0.209   0.209   0.206   0.161
 2015 165    40  15.20  28.80  14.20 -99.000   3.581   1.619   2.000 -99.000 -99.000 -99.000   3.570   1.619   1.950   0.000   0.001  138.21  132.99   27.99  104.99    0.00    0.00   0.218   0.217   0.218   0.222   0.216   0.215   0.215   0.215   0.215   0.162
 2015 166    41  14.90  29.00  15.60 -99.000   3.553   1.593   2.004 -99.000 -99.000 -99.000   3.542   1.593   1.949   0.000   0.001  141.77  136.53   29.59  106.94    0.00    0.00   0.212   0.214   0.214   0.222   0.218   0.217   0.217   0.217   0.217   0.159
 2015 167    42  13.50  28.80  14.90 -99.000   3.191   1.426   1.809 -99.000 -99.000 -99.000   3.181   1.426   1.755   0.000   0.001  144.96  139.71   31.01  108.70    0.00    0.00   0.198   0.195   0.197   0.203   0.202   0.193   0.190   0.189   0.188   0.143
 2015 168    43  11.60  28.60  16.10 -99.000   2.775   1.223   1.594 -99.000 -99.000 -99.000   2.766   1.223   1.543   0.000   0.001  147.73  142.48   32.24  110.24    0.00    0.01   0.176   0.172   0.173   0.180   0.180   0.169   0.165   0.164   0.164   0.122
 2015 169    44  13.40  28.70  15.70 -99.000   3.191   1.415   1.829 -99.000 -99.000 -99.000   3.181   1.415   1.766   0.000   0.001  150.93  145.66   33.65  112.01    0.00    0.01   0.196   0.194   0.195   0.204   0.204   0.196   0.192   0.192   0.192   0.141
 2015 170    45  13.60  27.20  15.40 -99.000   3.173   1.399   1.827 -99.000 -99.000 -99.000   3.163   1.399   1.764   0.000   0.002  154.10  148.82   35.05  113.77    0.00    0.01   0.201   0.196   0.198   0.205   0.206   0.196   0.189   0.187   0.187   0.140
 2015 171    46  12.90  25.90  12.50 -99.000   2.907   1.266   1.693 -99.000 -99.000 -99.000   2.897   1.266   1.631   0.000   0.002  157.01  151.72   36.32  115.40    0.00    0.01   0.185   0.181   0.183   0.189   0.190   0.182   0.175   0.173   0.172   0.127
 2015 172    47  14.00  24.30  14.80 -99.000   3.146   1.368   1.839 -99.000 -99.000 -99.000   3.135   1.368   1.767   0.000   0.002  160.15  154.85   37.68  117.17    0.00    0.01   0.195   0.194   0.195   0.203   0.204   0.198   0.193   0.192   0.192   0.137
 2015 173    48  13.30  26.20  13.00 -99.000   3.009   1.310   1.760 -99.000 -99.000 -99.000   2.999   1.310   1.689   0.000   0.002  163.16  157.85   38.99  118.86    0.00    0.01   0.183   0.184   0.184   0.193   0.194   0.190   0.187   0.187   0.187   0.131
 2015 174    49  14.40  26.30  14.60 -99.000   3.302   1.432   1.938 -99.000 -99.000 -99.000   3.291   1.432   1.859   0.000   0.002  166.46  161.14   40.43  120.72    0.00    0.02   0.209   0.206   0.208   0.216   0.217   0.206   0.200   0.199   0.198   0.143
 2015 175    50  11.90  26.20  13.10 -99.000   2.706   1.162   1.601 -99.000 -99.000 -99.000   2.696   1.162   1.534   0.000   0.002  169.17  163.84   41.59  122.25    0.00    0.02   0.175   0.171   0.172   0.178   0.179   0.169   0.164   0.163   0.163   0.116
 2015 176    51  15.50  26.90  12.40 -99.000   3.530   1.503   2.106 -99.000 -99.000 -99.000   3.518   1.503   2.015   0.000   0.002  172.70  167.36   43.09  124.26    0.00    0.02   0.224   0.222   0.223   0.232   0.233   0.223   0.220   0.219   0.219   0.150
 2015 177    52  13.00  25.50  12.10 -99.000   2.901   1.224   1.745 -99.000 -99.000 -99.000   2.891   1.224   1.666   0.000   0.002  175.60  170.25   44.32  125.93    0.00    0.02   0.192   0.187   0.188   0.190   0.189   0.183   0.179   0.178   0.178   0.122
 2015 178    53  13.70  24.70  11.90 -99.000   3.033   1.270   1.839 -99.000 -99.000 -99.000   3.022   1.270   1.753   0.000   0.002  178.63  173.27   45.59  127.68    0.00    0.02   0.203   0.198   0.199   0.198   0.196   0.192   0.189   0.188   0.188   0.127
 2015 179    54  14.00  25.50  11.20 -99.000   3.108   1.286   1.903 -99.000 -99.000 -99.000   3.097   1.286   1.811   0.000   0.002  181.74  176.37   46.87  129.49    0.00    0.02   0.203   0.202   0.201   0.205   0.203   0.201   0.199   0.199   0.199   0.129
 2015 180    55  15.30  26.30  12.70 -99.000   3.468   1.414   2.150 -99.000 -99.000 -99.000   3.457   1.414   2.043   0.000   0.002  185.21  179.82   48.29  131.54    0.00    0.03   0.223   0.225   0.224   0.231   0.230   0.228   0.227   0.227   0.227   0.141
 2015 181    56  14.90  26.70  12.40 -99.000   3.383   1.357   2.125 -99.000 -99.000 -99.000   3.372   1.357   2.015   0.000   0.002  188.59  183.19   49.64  133.55    0.00    0.03   0.228   0.224   0.226   0.233   0.233   0.221   0.218   0.216   0.216   0.136
 2015 182    57  14.00  28.60  12.40 -99.000   3.268   1.289   2.078 -99.000 -99.000 -99.000   3.257   1.289   1.968   0.000   0.002  191.86  186.45   50.93  135.52    0.00    0.03   0.224   0.219   0.222   0.229   0.230   0.215   0.211   0.209   0.209   0.129
 2015 183    58  14.10  28.00  13.60 -99.000   3.294   1.277   2.122 -99.000 -99.000 -99.000   3.283   1.277   2.006   0.000   0.002  195.15  189.74   52.21  137.53    0.00    0.03   0.223   0.221   0.222   0.231   0.232   0.222   0.219   0.218   0.218   0.128
 2015 184    59  14.60  28.10  13.20 -99.000   3.401   1.296   2.219 -99.000 -99.000 -99.000   3.390   1.296   2.094   0.000   0.002  198.55  193.13   53.50  139.62    0.00    0.03   0.242   0.236   0.235   0.239   0.238   0.229   0.226   0.225   0.225   0.130
 2015 185    60  15.40  28.90  12.10 -99.000   3.604   1.350   2.381 -99.000 -99.000 -99.000   3.593   1.350   2.243   0.000   0.002  202.16  196.72   54.85  141.86    0.00    0.04   0.260   0.254   0.251   0.253   0.252   0.246   0.243   0.242   0.242   0.135
 2015 186    61  12.50  29.10  10.70 -99.000   2.895   1.066   1.935 -99.000 -99.000 -99.000   2.886   1.066   1.819   0.000   0.002  205.05  199.60   55.92  143.68    0.00    0.04   0.204   0.203   0.200   0.205   0.205   0.201   0.200   0.201   0.201   0.107
 2015 187    62  10.20  28.60  10.80 -99.000   2.348   0.851   1.586 -99.000 -99.000 -99.000   2.340   0.851   1.489   0.000   0.002  207.40  201.94   56.77  145.17    0.00    0.04   0.163   0.164   0.162   0.168   0.168   0.166   0.166   0.166   0.166   0.085
 2015 188    63   5.20  23.90  13.10 -99.000   1.151   0.411   0.786 -99.000 -99.000 -99.000   1.146   0.411   0.736   0.000   0.002  208.55  203.09   57.18  145.91    0.00    0.04   0.079   0.081   0.080   0.083   0.083   0.083   0.082   0.082   0.082   0.041
 2015 189    64   1.80  18.60  13.90 -99.000   0.375   0.132   0.259 -99.000 -99.000 -99.000   0.372   0.132   0.240   0.000   0.002  208.93  203.46   57.31  146.15    0.00    0.05   0.026   0.026   0.026   0.027   0.027   0.027   0.027   0.027   0.027   0.013
 2015 190    65  11.30  26.00  12.10 -99.000   2.550   0.885   1.772 -99.000 -99.000 -99.000   2.531   0.885   1.646   0.000   0.013  211.48  205.99   58.20  147.79    0.00    0.06   0.180   0.181   0.178   0.185   0.185   0.185   0.184   0.184   0.184   0.088
 2015 191    66  16.40  29.30  12.30 -99.000   3.853   1.316   2.704 -99.000 -99.000 -99.000   3.832   1.316   2.517   0.000   0.012  215.33  209.82   59.51  150.31    0.00    0.07   0.293   0.287   0.275   0.280   0.278   0.278   0.275   0.275   0.275   0.132
 2015 192    67  14.70  29.60  13.60 -99.000   3.519   1.181   2.496 -99.000 -99.000 -99.000   3.500   1.181   2.320   0.000   0.011  218.85  213.33   60.70  152.63    0.00    0.08   0.273   0.267   0.254   0.257   0.255   0.254   0.253   0.253   0.253   0.118
 2015 193    68  14.00  29.50  12.20 -99.000   3.306   1.089   2.371 -99.000 -99.000 -99.000   3.289   1.089   2.200   0.000   0.011  222.16  216.61   61.78  154.83    0.00    0.09   0.249   0.247   0.238   0.245   0.244   0.245   0.245   0.245   0.244   0.109
 2015 194    69  16.70  30.30  12.60 -99.000   3.988   1.291   2.888 -99.000 -99.000 -99.000   3.970   1.291   2.679   0.000   0.010  226.14  220.58   63.07  157.51    0.00    0.10   0.309   0.301   0.299   0.309   0.305   0.293   0.289   0.287   0.287   0.129
 2015 195    70  15.40  29.70  12.70 -99.000   3.706   0.958   2.949 -99.000 -99.000 -99.000   3.690   0.958   2.733   0.000   0.009  229.85  224.27   64.03  160.24    0.00    0.11   0.312   0.305   0.309   0.320   0.315   0.297   0.293   0.291   0.291   0.096
 2015 196    71  16.10  30.00  12.30 -99.000   3.862   0.873   3.278 -99.000 -99.000 -99.000   3.847   0.873   2.974   0.000   0.011  233.71  228.12   64.91  163.22    0.00    0.12   0.330   0.328   0.330   0.344   0.341   0.328   0.325   0.325   0.325   0.087
 2015 197    72  14.30  27.90  13.10 -99.000   3.358   0.610   2.980 -99.000 -99.000 -99.000   3.267   0.610   2.657   0.000   0.014  237.07  231.39   65.52  165.87    0.00    0.14   0.290   0.291   0.291   0.304   0.303   0.295   0.294   0.294   0.294   0.061
 2015 198    73  16.70  27.30  12.40 -99.000   3.862   0.534   3.540 -99.000 -99.000 -99.000   3.654   0.534   3.119   0.000   0.016  240.93  235.04   66.05  168.99    0.00    0.15   0.357   0.350   0.353   0.364   0.349   0.339   0.336   0.336   0.336   0.053
 2015 199    74  14.80  26.20  11.90 -99.000   3.383   0.355   3.173 -99.000 -99.000 -99.000   3.126   0.355   2.771   0.000   0.016  244.31  238.17   66.40  171.76    0.00    0.17   0.321   0.313   0.316   0.324   0.307   0.299   0.297   0.297   0.297   0.035
 2015 200    75  14.50  26.60  13.20 -99.000   3.354   0.265   3.199 -99.000 -99.000 -99.000   3.041   0.265   2.776   0.000   0.015  247.67  241.21   66.67  174.54    0.00    0.18   0.313   0.309   0.310   0.320   0.308   0.304   0.304   0.304   0.304   0.027
 2015 201    76  17.50  28.80  13.80 -99.000   4.162   0.248   4.019 -99.000 -99.000 -99.000   3.293   0.248   3.045   0.000   0.014  251.83  244.50   66.92  177.58    0.00    0.20   0.336   0.336   0.335   0.348   0.339   0.337   0.337   0.337   0.337   0.025
 2015 202    77  13.80  28.60  13.80 -99.000   3.268   0.146   3.184 -99.000 -99.000 -99.000   2.889   0.146   2.743   0.000   0.013  255.10  247.39   67.06  180.33    0.00    0.21   0.299   0.302   0.299   0.312   0.307   0.307   0.305   0.305   0.305   0.015

*DSSAT Cropping System Model Ver. 4.7.5.007 -  JAN 21, 2026 10:11:01
!                                                                                                                                                                                        Soil evaporation (mm/d) by soil depth (cm):
!                                                                                                                                                                                       0-10   10-20   20-30   30-40   40-50   50-60   60-70   70-80   80-90
@YEAR DOY   DAS   SRAA  TMAXA  TMINA    REFA    EOAA    EOPA    EOSA    KCAA    KCBA    KEAA    ETAA    EPAA    ESAA    EFAA    EMAA    EOAC    ETAC    EPAC    ESAC    EFAC    EMAC    ES1D    ES2D    ES3D    ES4D    ES5D    ES6D    ES7D    ES8D    ES9D   TRWUD
 2015 148     1  14.20  27.70  12.20 -99.000   3.584   0.000   3.584 -99.000 -99.000 -99.000   3.119   0.000   3.119   0.000   0.000    3.58    3.12    0.00    3.12    0.00    0.00   0.355   0.350   0.351   0.360   0.345   0.341   0.340   0.339   0.339   0.000
 2015 149     2  14.70  27.20  10.40 -99.000   3.671   0.000   3.671 -99.000 -99.000 -99.000   3.141   0.000   3.141   0.000   0.000    7.25    6.26    0.00    6.26    0.00    0.00   0.365   0.355   0.359   0.365   0.345   0.339   0.338   0.337   0.337   0.000
 2015 150     3  16.40  29.00  11.00 -99.000   4.190   0.000   4.190 -99.000 -99.000 -99.000   3.084   0.000   3.084   0.000   0.000   11.44    9.34    0.00    9.34    0.00    0.00   0.349   0.345   0.345   0.354   0.341   0.337   0.337   0.337   0.337   0.000
 2015 151     4  16.50  30.70  12.00 -99.000   4.323   0.000   4.323 -99.000 -99.000 -99.000   3.046   0.000   3.046   0.000   0.000   15.77   12.39    0.00   12.39    0.00    0.00   0.338   0.337   0.336   0.347   0.338   0.337   0.337   0.337   0.337   0.000
 2015 152     5  14.80  29.60  12.40 -99.000   3.833   0.000   3.833 -99.000 -99.000 -99.000   3.017   0.000   3.017   0.000   0.000   19.60   15.41    0.00   15.41    0.00    0.00   0.331   0.332   0.330   0.342   0.337   0.337   0.336   0.335   0.335   0.000
 2015 153     6  15.30  28.70  16.60 -99.000   4.033   0.078   3.989 -99.000 -99.000 -99.000   3.065   0.078   2.987   0.000   0.000   23.63   18.47    0.08   18.39    0.00    0.00   0.325   0.329   0.326   0.339   0.336   0.335   0.333   0.332   0.332   0.008
 2015 154     7  14.20  27.70  16.20 -99.000   3.683   0.091   3.631 -99.000 -99.000 -99.000   0.985   0.091   0.894   0.000   0.000   27.32   19.46    0.17   19.29    0.00    0.00   0.730   0.086   0.031   0.017   0.010   0.007   0.005   0.004   0.003   0.009
 2015 155     8  16.10  27.10  15.40 -99.000   4.111   0.129   4.038 -99.000 -99.000 -99.000   3.183   0.129   3.053   0.000   0.000   31.43   22.64    0.30   22.34    0.00    0.00   0.350   0.347   0.350   0.351   0.337   0.332   0.330   0.328   0.328   0.013
 2015 156     9  15.40  27.10  15.40 -99.000   3.971   0.152   3.884 -99.000 -99.000 -99.000   3.255   0.152   3.103   0.000   0.000   35.40   25.89    0.45   25.44    0.00    0.00   0.365   0.355   0.358   0.356   0.339   0.334   0.333   0.332   0.331   0.015
 2015 157    10  15.60  27.80  15.60 -99.000   4.042   0.184   3.937 -99.000 -99.000 -99.000   3.256   0.184   3.071   0.000   0.000   39.44   29.15    0.64   28.52    0.00    0.00   0.349   0.344   0.345   0.348   0.337   0.337   0.337   0.337   0.337   0.018
 2015 158    11  15.20  27.70  15.90 -99.000   3.928   0.210   3.807 -99.000 -99.000 -99.000   3.247   0.210   3.037   0.000   0.000   43.37   32.40    0.85   31.55    0.00    0.00   0.337   0.337   0.336   0.343   0.337   0.337   0.337   0.337   0.336   0.021
 2015 159    12  15.10  28.00  14.50 -99.000   3.862   0.238   3.725 -99.000 -99.000 -99.000   3.244   0.238   3.007   0.000   0.000   47.23   35.64    1.08   34.56    0.00    0.00   0.329   0.332   0.329   0.339   0.337   0.336   0.335   0.335   0.333   0.024
 2015 160    13  16.00  28.30  14.20 -99.000   4.084   0.304   3.906 -99.000 -99.000 -99.000   3.384   0.300   3.084   0.000   0.000   51.31   39.03    1.38   37.64    0.00    0.00   0.356   0.349   0.351   0.357   0.342   0.335   0.332   0.332   0.330   0.030
 2015 161    14  10.80  27.40  14.70 -99.000   2.759   0.129   2.630 -99.000 -99.000 -99.000   2.758   0.129   2.630   0.000   0.000   54.07   41.78    1.51   40.27    0.00    0.00   0.307   0.299   0.302   0.307   0.289   0.283   0.281   0.281   0.280   0.013
 2015 162    15  15.20  28.30  15.60 -99.000   3.927   0.384   3.700 -99.000 -99.000 -99.000   3.467   0.384   3.083   0.000   0.000   58.00   45.25    1.90   43.36    0.00    0.00   0.349   0.344   0.345   0.354   0.340   0.338   0.338   0.338   0.338   0.038
 2015 163    16  13.20  27.70  16.80 -99.000   3.398   0.354   3.159 -99.000 -99.000 -99.000   3.396   0.354   3.042   0.000   0.000   61.40   48.65    2.25   46.40    0.00    0.00   0.336   0.336   0.335   0.347   0.338   0.337   0.337   0.337   0.337   0.035
 2015 164    17  15.00  28.70  14.70 -99.000   3.822   0.549   3.490 -99.000 -99.000 -99.000   3.504   0.493   3.010   0.000   0.000   65.22   52.15    2.74   49.41    0.00    0.00   0.328   0.332   0.329   0.342   0.337   0.337   0.335   0.335   0.335   0.049
 2015 165    18  15.20  28.80  14.20 -99.000   3.853   0.584   3.498 -99.000 -99.000 -99.000   3.520   0.435   3.085   0.000   0.000   69.07   55.67    3.18   52.49    0.00    0.00   0.355   0.348   0.351   0.358   0.342   0.336   0.332   0.332   0.332   0.044
 2015 166    19  14.90  29.00  15.60 -99.000   3.855   0.598   3.491 -99.000 -99.000 -99.000   3.718   0.598   3.120   0.000   0.000   72.93   59.39    3.78   55.61    0.00    0.00   0.364   0.354   0.358   0.363   0.343   0.337   0.334   0.334   0.334   0.060
 2015 167    20  13.50  28.80  14.90 -99.000   3.437   0.392   3.042 -99.000 -99.000 -99.000   3.434   0.392   3.042   0.000   0.000   76.37   62.82    4.17   58.65    0.00    0.00   0.343   0.339   0.340   0.349   0.335   0.334   0.334   0.334   0.334   0.039
 2015 168    21  11.60  28.60  16.10 -99.000   2.951   0.408   2.540 -99.000 -99.000 -99.000   2.947   0.408   2.539   0.000   0.000   79.32   65.77    4.58   61.19    0.00    0.00   0.280   0.280   0.280   0.289   0.282   0.282   0.282   0.282   0.281   0.041
 2015 169    22  13.40  28.70  15.70 -99.000   3.376   0.563   2.809 -99.000 -99.000 -99.000   3.371   0.563   2.809   0.000   0.000   82.69   69.14    5.14   64.00    0.00    0.00   0.305   0.309   0.307   0.319   0.315   0.315   0.314   0.314   0.311   0.056
 2015 170    23  13.60  27.20  15.40 -99.000   3.341   0.625   2.712 -99.000 -99.000 -99.000   3.323   0.612   2.711   0.000   0.000   86.03   72.46    5.75   66.71    0.00    0.00   0.292   0.297   0.295   0.308   0.306   0.305   0.303   0.303   0.301   0.061
 2015 171    24  12.90  25.90  12.50 -99.000   3.037   0.921   2.421 -99.000 -99.000 -99.000   1.480   0.603   0.877   0.000   0.000   89.07   73.94    6.35   67.59    0.00    0.00   0.715   0.085   0.031   0.017   0.010   0.007   0.005   0.004   0.003   0.060
 2015 172    25  14.00  24.30  14.80 -99.000   3.287   1.013   2.608 -99.000 -99.000 -99.000   1.422   0.570   0.852   0.000   0.000   92.36   75.37    6.92   68.44    0.00    0.00   0.691   0.084   0.031   0.017   0.010   0.007   0.005   0.004   0.003   0.057
 2015 173    26  13.30  26.20  13.00 -99.000   3.144   0.657   2.486 -99.000 -99.000 -99.000   3.032   0.550   2.482   0.000   0.000   95.50   78.40    7.48   70.92    0.00    0.00   0.283   0.284   0.270   0.278   0.275   0.275   0.273   0.273   0.271   0.055
 2015 174    27  14.40  26.30  14.60 -99.000   3.481   0.753   2.727 -99.000 -99.000 -99.000   3.475   0.753   2.722   0.000   0.000   98.98   81.87    8.23   73.64    0.00    0.00   0.327   0.318   0.296   0.302   0.300   0.300   0.295   0.293   0.291   0.075
 2015 175    28  11.90  26.20  13.10 -99.000   2.808   0.722   2.085 -99.000 -99.000 -99.000   2.802   0.722   2.081   0.000   0.000  101.79   84.68    8.95   75.73    0.00    0.00   0.240   0.237   0.225   0.234   0.234   0.234   0.230   0.224   0.222   0.072
 2015 176    29  15.50  26.90  12.40 -99.000   3.644   1.028   2.614 -99.000 -99.000 -99.000   3.636   1.028   2.609   0.000   0.000  105.43   88.31    9.98   78.33    0.00    0.00   0.293   0.294   0.283   0.296   0.296   0.295   0.292   0.281   0.279   0.103
 2015 177    30  13.00  25.50  12.10 -99.000   2.981   0.900   2.083 -99.000 -99.000 -99.000   2.974   0.900   2.074   0.000   0.000  108.42   91.29   10.88   80.41    0.00    0.00   0.241   0.237   0.236   0.245   0.234   0.229   0.223   0.215   0.214   0.090
 2015 178    31  13.70  24.70  11.90 -99.000   3.105   1.019   2.095 -99.000 -99.000 -99.000   3.097   1.019   2.078   0.000   0.000  111.52   94.38   11.90   82.49    0.00    0.00   0.242   0.236   0.239   0.247   0.233   0.226   0.222   0.218   0.216   0.102
 2015 179    32  14.00  25.50  11.20 -99.000   3.159   1.156   2.014 -99.000 -99.000 -99.000   3.150   1.156   1.995   0.000   0.000  114.68   97.53   13.05   84.48    0.00    0.00   0.223   0.221   0.223   0.232   0.222   0.218   0.218   0.218   0.218   0.116
 2015 180    33  15.30  26.30  12.70 -99.000   3.508   1.387   2.131 -99.000 -99.000 -99.000   3.498   1.387   2.111   0.000   0.000  118.19  101.03   14.44   86.59    0.00    0.00   0.231   0.232   0.232   0.242   0.237   0.234   0.234   0.234   0.234   0.139
 2015 181    34  14.90  26.70  12.40 -99.000   3.406   1.413   2.002 -99.000 -99.000 -99.000   3.395   1.413   1.982   0.000   0.000  121.59  104.43   15.85   88.57    0.00    0.00   0.226   0.222   0.225   0.231   0.220   0.216   0.214   0.214   0.214   0.141
 2015 182    35  14.00  28.60  12.40 -99.000   3.278   1.396   1.891 -99.000 -99.000 -99.000   3.269   1.396   1.873   0.000   0.000  124.87  107.70   17.25   90.45    0.00    0.00   0.216   0.211   0.213   0.219   0.207   0.203   0.201   0.201   0.201   0.140
 2015 183    36  14.10  28.00  13.60 -99.000   3.293   1.449   1.852 -99.000 -99.000 -99.000   3.282   1.449   1.833   0.000   0.000  128.16  110.98   18.70   92.28    0.00    0.00   0.205   0.203   0.204   0.212   0.204   0.201   0.201   0.201   0.201   0.145
 2015 184    37  14.60  28.10  13.20 -99.000   3.392   1.522   1.880 -99.000 -99.000 -99.000   3.381   1.522   1.860   0.000   0.000  131.56  114.36   20.22   94.14    0.00    0.00   0.216   0.211   0.207   0.212   0.205   0.202   0.202   0.202   0.202   0.152
 2015 185    38  15.40  28.90  12.10 -99.000   3.592   1.603   2.002 -99.000 -99.000 -99.000   3.580   1.603   1.977   0.000   0.000  135.15  117.94   21.82   96.12    0.00    0.00   0.230   0.226   0.218   0.223   0.218   0.216   0.215   0.215   0.215   0.160
 2015 186    39  12.50  29.10  10.70 -99.000   2.881   1.297   1.601 -99.000 -99.000 -99.000   2.871   1.297   1.574   0.000   0.000  138.03  120.81   23.12   97.69    0.00    0.00   0.177   0.176   0.171   0.177   0.175   0.174   0.174   0.174   0.174   0.130
 2015 187    40  10.20  28.60  10.80 -99.000   2.336   1.045   1.308 -99.000 -99.000 -99.000   2.329   1.045   1.284   0.000   0.000  140.36  123.14   24.16   98.98    0.00    0.00   0.140   0.142   0.139   0.145   0.144   0.144   0.144   0.143   0.143   0.104
 2015 188    41   5.20  23.90  13.10 -99.000   1.146   0.508   0.648 -99.000 -99.000 -99.000   1.141   0.508   0.633   0.000   0.001  141.51  124.28   24.67   99.61    0.00    0.00   0.068   0.069   0.068   0.072   0.071   0.071   0.071   0.071   0.071   0.051
 2015 189    42   1.80  18.60  13.90 -99.000   0.373   0.164   0.214 -99.000 -99.000 -99.000   0.371   0.164   0.207   0.000   0.001  141.88  124.65   24.84   99.82    0.00    0.00   0.023   0.023   0.022   0.023   0.023   0.023   0.023   0.023   0.023   0.016
 2015 190    43  11.30  26.00  12.10 -99.000   2.535   1.112   1.457 -99.000 -99.000 -99.000   2.525   1.112   1.413   0.000   0.002  144.42  127.18   25.95  101.23    0.00    0.01   0.155   0.156   0.152   0.159   0.158   0.159   0.159   0.158   0.158   0.111
 2015 191    44  16.40  29.30  12.30 -99.000   3.829   1.678   2.206 -99.000 -99.000 -99.000   3.815   1.678   2.138   0.000   0.003  148.25  130.99   27.62  103.37    0.00    0.01   0.245   0.240   0.241   0.249   0.239   0.233   0.231   0.230   0.230   0.168
 2015 192    45  14.70  29.60  13.60 -99.000   3.496   1.513   2.035 -99.000 -99.000 -99.000   3.484   1.513   1.971   0.000   0.003  151.74  134.48   29.14  105.34    0.00    0.01   0.226   0.222   0.224   0.232   0.221   0.213   0.211   0.211   0.210   0.151
 2015 193    46  14.00  29.50  12.20 -99.000   3.281   1.427   1.907 -99.000 -99.000 -99.000   3.269   1.427   1.843   0.000   0.003  155.03  137.75   30.56  107.18    0.00    0.01   0.205   0.204   0.205   0.214   0.207   0.202   0.202   0.202   0.202   0.143
 2015 194    47  16.70  30.30  12.60 -99.000   3.960   1.712   2.312 -99.000 -99.000 -99.000   3.946   1.712   2.234   0.000   0.003  158.98  141.69   32.28  109.41    0.00    0.02   0.254   0.248   0.252   0.261   0.257   0.246   0.240   0.238   0.237   0.171
 2015 195    48  15.40  29.70  12.70 -99.000   3.643   1.558   2.149 -99.000 -99.000 -99.000   3.630   1.558   2.073   0.000   0.003  162.63  145.32   33.83  111.49    0.00    0.02   0.235   0.230   0.232   0.241   0.241   0.230   0.223   0.220   0.220   0.156
 2015 196    49  16.10  30.00  12.30 -99.000   3.800   1.629   2.244 -99.000 -99.000 -99.000   3.787   1.629   2.158   0.000   0.003  166.43  149.11   35.46  113.65    0.00    0.02   0.238   0.237   0.238   0.248   0.249   0.241   0.236   0.235   0.235   0.163
 2015 197    50  14.30  27.90  13.10 -99.000   3.309   1.421   1.952 -99.000 -99.000 -99.000   3.296   1.421   1.876   0.000   0.003  169.74  152.40   36.88  115.52    0.00    0.02   0.203   0.205   0.204   0.214   0.216   0.211   0.208   0.208   0.208   0.142
 2015 198    51  16.70  27.30  12.40 -99.000   3.813   1.631   2.257 -99.000 -99.000 -99.000   3.799   1.631   2.169   0.000   0.003  173.55  156.20   38.51  117.69    0.00    0.03   0.246   0.243   0.245   0.248   0.244   0.238   0.235   0.234   0.234   0.163
 2015 199    52  14.80  26.20  11.90 -99.000   3.337   1.416   1.989 -99.000 -99.000 -99.000   3.325   1.416   1.909   0.000   0.003  176.89  159.53   39.93  119.60    0.00    0.03   0.221   0.215   0.218   0.217   0.212   0.209   0.206   0.206   0.206   0.142
 2015 200    53  14.50  26.60  13.20 -99.000   3.314   1.399   1.987 -99.000 -99.000 -99.000   3.302   1.399   1.904   0.000   0.003  180.20  162.83   41.33  121.50    0.00    0.03   0.213   0.211   0.212   0.216   0.213   0.210   0.209   0.209   0.209   0.140
 2015 201    54  17.50  28.80  13.80 -99.000   4.120   1.725   2.489 -99.000 -99.000 -99.000   4.107   1.725   2.382   0.000   0.003  184.32  166.94   43.05  123.88    0.00    0.03   0.260   0.262   0.261   0.270   0.267   0.266   0.265   0.265   0.265   0.172
 2015 202    55  13.80  28.60  13.80 -99.000   3.240   1.343   1.974 -99.000 -99.000 -99.000   3.228   1.343   1.885   0.000   0.003  187.56  170.17   44.40  125.77    0.00    0.04   0.201   0.206   0.205   0.214   0.212   0.212   0.212   0.212   0.212   0.134
 2015 203    56  17.50  29.10  15.90 -99.000   4.198   2.072   2.595 -99.000 -99.000 -99.000   2.626   1.757   0.869   0.000   0.003  191.76  172.79   46.15  126.64    0.00    0.04   0.707   0.085   0.031   0.017   0.010   0.007   0.005   0.004   0.003   0.176
 2015 204    57  14.70  29.10  18.10 -99.000   3.583   1.430   2.250 -99.000 -99.000 -99.000   3.356   1.215   2.141   0.000   0.003  195.34  176.15   47.37  128.78    0.00    0.04   0.240   0.240   0.243   0.245   0.237   0.235   0.234   0.234   0.234   0.121
 2015 205    58  17.50  28.50  14.70 -99.000   4.160   1.624   2.656 -99.000 -99.000 -99.000   4.146   1.624   2.523   0.000   0.003  199.50  180.29   48.99  131.30    0.00    0.05   0.295   0.287   0.290   0.287   0.276   0.273   0.272   0.272   0.272   0.162
 2015 206    59  15.00  29.20  16.40 -99.000   3.634   1.394   2.352 -99.000 -99.000 -99.000   3.623   1.394   2.228   0.000   0.003  203.14  183.92   50.39  133.53    0.00    0.05   0.250   0.248   0.249   0.252   0.246   0.246   0.246   0.246   0.246   0.139
 2015 207    60  15.20  29.70  16.40 -99.000   3.699   1.392   2.427 -99.000 -99.000 -99.000   3.688   1.392   2.296   0.000   0.003  206.84  187.61   51.78  135.83    0.00    0.05   0.251   0.252   0.252   0.260   0.256   0.256   0.256   0.256   0.255   0.139
 2015 208    61  17.70  30.20  15.10 -99.000   4.291   1.553   2.888 -99.000 -99.000 -99.000   4.279   1.553   2.726   0.000   0.003  211.13  191.88   53.33  138.55    0.00    0.05   0.292   0.298   0.297   0.309   0.307   0.307   0.307   0.305   0.304   0.155
 2015 209    62  10.20  30.10  13.40 -99.000   2.437   0.853   1.678 -99.000 -99.000 -99.000   2.429   0.853   1.576   0.000   0.003  213.56  194.31   54.19  140.13    0.00    0.06   0.179   0.177   0.178   0.185   0.175   0.172   0.171   0.170   0.169   0.085
 2015 210    63  17.50  30.60  14.10 -99.000   4.252   1.471   2.960 -99.000 -99.000 -99.000   4.240   1.471   2.769   0.000   0.004  217.82  198.55   55.66  142.90    0.00    0.06   0.322   0.314   0.317   0.327   0.305   0.298   0.296   0.295   0.295   0.147
 2015 211    64  17.70  29.20  15.70 -99.000   4.277   1.452   3.010 -99.000 -99.000 -99.000   4.264   1.452   2.812   0.000   0.004  222.09  202.82   57.11  145.71    0.00    0.07   0.315   0.312   0.313   0.326   0.312   0.308   0.308   0.308   0.308   0.145
 2015 212    65  18.20  29.80  14.50 -99.000   4.382   1.460   3.119 -99.000 -99.000 -99.000   4.369   1.460   2.909   0.000   0.004  226.48  207.19   58.57  148.62    0.00    0.07   0.317   0.319   0.319   0.334   0.325   0.324   0.324   0.324   0.323   0.146
 2015 213    66  16.70  29.30  14.40 -99.000   3.991   1.305   2.872 -99.000 -99.000 -99.000   3.980   1.305   2.674   0.000   0.003  230.47  211.17   59.87  151.29    0.00    0.07   0.305   0.300   0.303   0.312   0.295   0.291   0.290   0.290   0.288   0.131
 2015 214    67  18.50  29.10  13.10 -99.000   4.393   1.410   3.195 -99.000 -99.000 -99.000   4.380   1.410   2.971   0.000   0.003  234.86  215.55   61.28  154.26    0.00    0.08   0.344   0.336   0.339   0.347   0.327   0.321   0.319   0.319   0.319   0.141
 2015 215    68  15.90  29.20  15.20 -99.000   3.833   1.209   2.816 -99.000 -99.000 -99.000   3.823   1.209   2.614   0.000   0.003  238.69  219.37   62.49  156.88    0.00    0.08   0.292   0.290   0.291   0.301   0.289   0.287   0.287   0.287   0.287   0.121
 2015 216    69  18.60  29.60  15.40 -99.000   4.506   1.394   3.344 -99.000 -99.000 -99.000   4.495   1.394   3.101   0.000   0.003  243.20  223.86   63.89  159.98    0.00    0.08   0.356   0.347   0.352   0.363   0.349   0.337   0.333   0.332   0.332   0.139
 2015 217    70  18.60  29.90  16.50 -99.000   4.620   1.333   3.739 -99.000 -99.000 -99.000   4.481   1.333   3.148   0.000   0.003  247.82  228.34   65.22  163.13    0.00    0.09   0.360   0.353   0.356   0.369   0.359   0.342   0.337   0.336   0.336   0.133
 2015 218    71  18.70  30.00  16.50 -99.000   4.631   1.031   3.978 -99.000 -99.000 -99.000   4.111   1.031   3.080   0.000   0.004  252.45  232.46   66.25  166.21    0.00    0.09   0.342   0.340   0.341   0.356   0.350   0.339   0.337   0.337   0.337   0.103
 2015 219    72  18.80  30.70  16.90 -99.000   4.690   0.799   4.200 -99.000 -99.000 -99.000   3.833   0.799   3.034   0.000   0.007  257.14  236.29   67.05  169.24    0.00    0.10   0.330   0.332   0.332   0.347   0.344   0.337   0.337   0.337   0.337   0.080
 2015 220    73  18.50  30.50  13.60 -99.000   4.480   0.579   4.133 -99.000 -99.000 -99.000   3.688   0.579   3.109   0.000   0.009  261.62  239.98   67.63  172.35    0.00    0.10   0.355   0.349   0.352   0.363   0.346   0.338   0.335   0.335   0.335   0.058
 2015 221    74  23.60  31.40  12.60 -99.000   5.765   0.564   5.432 -99.000 -99.000 -99.000   3.696   0.564   3.132   0.000   0.010  267.38  243.67   68.19  175.48    0.00    0.11   0.363   0.354   0.358   0.367   0.346   0.338   0.335   0.335   0.335   0.056
 2015 222    75  23.90  31.10  15.70 -99.000   5.932   0.437   5.678 -99.000 -99.000 -99.000   3.517   0.437   3.079   0.000   0.010  273.32  247.19   68.63  178.56    0.00    0.12   0.346   0.343   0.344   0.355   0.342   0.337   0.337   0.337   0.337   0.044
 2015 223    76  13.20  28.60  15.70 -99.000   3.176   0.176   3.075 -99.000 -99.000 -99.000   2.833   0.176   2.657   0.000   0.010  276.49  250.02   68.80  181.22    0.00    0.13   0.307   0.298   0.301   0.310   0.304   0.288   0.284   0.282   0.282   0.018
 2015 224    77  19.40  28.80  15.70 -99.000   4.702   0.196   4.590 -99.000 -99.000 -99.000   3.367   0.196   3.172   0.000   0.009  281.19  253.39   69.00  184.39    0.00    0.14   0.365   0.355   0.359   0.370   0.369   0.345   0.338   0.336   0.336   0.020
