*INFO DETAIL FILE

******************************************************************************

*DSSAT Cropping System Model Ver. 4.7.5.007 -  JAN 21, 2026 10:11:01

 CSM     YEAR DOY = 2015 103
 RNMODE = B                                                                    
 PATHEX =                                                                      
 FILEX  = EMEP1403.BNX                                                         
 FILEB  = DSSBatch.v47                                                         
 FILEIO = DSSAT47.INP                                                          
 MODEL  = CRGRO047                                                             
 TRTNUM =     1                                                                

 SOILDYN  YEAR DOY = 2015 103
 The soil file has missing or invalid data.                                    
 Default values have been used for these variables:                            
   ADCOEF                                                                      
 These defaults may or may not be important to your results.                   

 RETC  YEAR DOY = 2015 103
 Soil RETC parameters:                                                         
  LYR DS  SWCN   WCR    Hb Lambd  Alpha     m     n Texture                    
   1  10  0.10 0.094   2.9 0.106  0.016 0.112 1.126 Clay                       
   2  20  0.10 0.097   6.6 0.104  0.008 0.107 1.120 Clay                       
   3  30  0.10 0.095   4.1 0.105  0.012 0.109 1.122 Clay                       
   4  40  0.10 0.099   5.5 0.105  0.010 0.109 1.122 Clay                       
   5  50  0.10 0.099   5.5 0.105  0.010 0.109 1.122 Clay                       
   6  60  0.10 0.099   5.5 0.105  0.010 0.109 1.122 Clay                       
   7  70  0.10 0.099   5.5 0.105  0.010 0.109 1.122 Clay                       
   8  80  0.10 0.099   5.5 0.105  0.010 0.109 1.122 Clay                       
   9  90  0.10 0.099   5.5 0.105  0.010 0.109 1.122 Clay                       

 SOILDYN  YEAR DOY = 2015 103
 Soil ID: GOST000002                                                           
 LATOSSOLO V. DISTROFICO(2015)                                                 
                                                                               
   SALB SWCON    CN  DMOD  SLPF SMPX                                           
   0.14  0.30  83.0  1.00  0.90 IB00                                           
 Soil layer distribution method: 3                                             
      DS DLAYR    LL   DUL   SAT  Root    BD    OC  CLAY  SILT  SAND           
 LYR  cm    cm  frac  frac  frac  Grow g/cm3     %     %     %     %    pH     
   1  10    10 0.283 0.377 0.460 1.000  1.76  1.67  41.1  26.3  32.6   5.0     
   2  20    10 0.292 0.387 0.440 0.800  1.88  1.23  45.2  23.0  31.8   5.0     
   3  30    10 0.286 0.380 0.450 0.600  1.85  1.06  43.2  25.8  31.0   5.0     
   4  40    10 0.299 0.398 0.460 0.300  1.82  0.87  45.4  23.5  31.1   5.0     
   5  50    10 0.299 0.398 0.460 0.100  1.82  0.87  45.4  23.5  31.1   5.0     
   6  60    10 0.299 0.398 0.460 0.000  1.82  0.87  45.4  23.5  31.1   5.0     
   7  70    10 0.299 0.398 0.460 0.000  1.82  0.87  45.4  23.5  31.1   5.0     
   8  80    10 0.299 0.398 0.460 0.000  1.82  0.87  45.4  23.5  31.1   5.0     
   9  90    10 0.299 0.398 0.460 0.000  1.82  0.87  45.4  23.5  31.1   5.0     

 SOILDYN  YEAR DOY = 2015 103
 Additional soil properties                                                    
                Convert                                                        
    Cation Adsrp  ppm /  KSAT  SLCF  TOTN  OrgN                                
   L  Exch  Coef  kg/ha  cm/h     %     % kg/ha                                
   1  10.0   0.0   0.57   0.1   0.0  0.10  1749                                
   2   9.0   0.0   0.53   0.1   0.0  0.10  1869                                
   3   8.0   0.0   0.54   0.1   0.0  0.10  1839                                
   4   8.0   0.0   0.55   0.1   0.0  0.10  1809                                
   5   8.0   0.0   0.55   0.1   0.0  0.10  1809                                
   6   8.0   0.0   0.55   0.1   0.0  0.10  1809                                
   7   8.0   0.0   0.55   0.1   0.0  0.10  1809                                
   8   8.0   0.0   0.55   0.1   0.0  0.10  1809                                
   9   8.0   0.0   0.55   0.1   0.0  0.10  1809                                

 IPWTH   YEAR DOY = 2015 103
 AFGO1401.WTH                                                                  
 Found daily weather data headers for:                                         
   SRAD           Col   7 -  11                                                
   TMAX           Col  13 -  17                                                
   TMIN           Col  19 -  23                                                
   RAIN           Col  25 -  29                                                
   DEWP           Col  31 -  35                                                
   WIND           Col  37 -  41                                                
   PAR            Col  43 -  47                                                
   RHUM           Col  55 -  59                                                

 CO2VAL  YEAR DOY = 2015 103
  714 CO2 data points read from file.                                          
 CO2047.WDA                                                                    

 ENDRUN  YEAR DOY = 2015 175
 Normal end of run        1                                                    

******************************************************************************

*DSSAT Cropping System Model Ver. 4.7.5.007 -  JAN 21, 2026 10:11:01

 CSM     YEAR DOY = 2015 126
 RNMODE = B                                                                    
 PATHEX =                                                                      
 FILEX  = EMEP1403.BNX                                                         
 FILEB  = DSSBatch.v47                                                         
 FILEIO = DSSAT47.INP                                                          
 MODEL  = CRGRO047                                                             
 TRTNUM =     2                                                                

 SOILDYN  YEAR DOY = 2015 126
 The soil file has missing or invalid data.                                    
 Default values have been used for these variables:                            
   ADCOEF                                                                      
 These defaults may or may not be important to your results.                   

 RETC  YEAR DOY = 2015 126
 Soil RETC parameters:                                                         
  LYR DS  SWCN   WCR    Hb Lambd  Alpha     m     n Texture                    
   1  10  0.10 0.094   2.9 0.106  0.016 0.112 1.126 Clay                       
   2  20  0.10 0.097   6.6 0.104  0.008 0.107 1.120 Clay                       
   3  30  0.10 0.095   4.1 0.105  0.012 0.109 1.122 Clay                       
   4  40  0.10 0.099   5.5 0.105  0.010 0.109 1.122 Clay                       
   5  50  0.10 0.099   5.5 0.105  0.010 0.109 1.122 Clay                       
   6  60  0.10 0.099   5.5 0.105  0.010 0.109 1.122 Clay                       
   7  70  0.10 0.099   5.5 0.105  0.010 0.109 1.122 Clay                       
   8  80  0.10 0.099   5.5 0.105  0.010 0.109 1.122 Clay                       
   9  90  0.10 0.099   5.5 0.105  0.010 0.109 1.122 Clay                       

 SOILDYN  YEAR DOY = 2015 126
 Soil ID: GOST000002                                                           
 LATOSSOLO V. DISTROFICO(2015)                                                 
                                                                               
   SALB SWCON    CN  DMOD  SLPF SMPX                                           
   0.14  0.30  83.0  1.00  0.90 IB00                                           
 Soil layer distribution method: 3                                             
      DS DLAYR    LL   DUL   SAT  Root    BD    OC  CLAY  SILT  SAND           
 LYR  cm    cm  frac  frac  frac  Grow g/cm3     %     %     %     %    pH     
   1  10    10 0.283 0.377 0.460 1.000  1.76  1.67  41.1  26.3  32.6   5.0     
   2  20    10 0.292 0.387 0.440 0.800  1.88  1.23  45.2  23.0  31.8   5.0     
   3  30    10 0.286 0.380 0.450 0.600  1.85  1.06  43.2  25.8  31.0   5.0     
   4  40    10 0.299 0.398 0.460 0.300  1.82  0.87  45.4  23.5  31.1   5.0     
   5  50    10 0.299 0.398 0.460 0.100  1.82  0.87  45.4  23.5  31.1   5.0     
   6  60    10 0.299 0.398 0.460 0.000  1.82  0.87  45.4  23.5  31.1   5.0     
   7  70    10 0.299 0.398 0.460 0.000  1.82  0.87  45.4  23.5  31.1   5.0     
   8  80    10 0.299 0.398 0.460 0.000  1.82  0.87  45.4  23.5  31.1   5.0     
   9  90    10 0.299 0.398 0.460 0.000  1.82  0.87  45.4  23.5  31.1   5.0     

 SOILDYN  YEAR DOY = 2015 126
 Additional soil properties                                                    
                Convert                                                        
    Cation Adsrp  ppm /  KSAT  SLCF  TOTN  OrgN                                
   L  Exch  Coef  kg/ha  cm/h     %     % kg/ha                                
   1  10.0   0.0   0.57   0.1   0.0  0.10  1749                                
   2   9.0   0.0   0.53   0.1   0.0  0.10  1869                                
   3   8.0   0.0   0.54   0.1   0.0  0.10  1839                                
   4   8.0   0.0   0.55   0.1   0.0  0.10  1809                                
   5   8.0   0.0   0.55   0.1   0.0  0.10  1809                                
   6   8.0   0.0   0.55   0.1   0.0  0.10  1809                                
   7   8.0   0.0   0.55   0.1   0.0  0.10  1809                                
   8   8.0   0.0   0.55   0.1   0.0  0.10  1809                                
   9   8.0   0.0   0.55   0.1   0.0  0.10  1809                                

 IPWTH   YEAR DOY = 2015 126
 AFGO1401.WTH                                                                  
 Found daily weather data headers for:                                         
   SRAD           Col   7 -  11                                                
   TMAX           Col  13 -  17                                                
   TMIN           Col  19 -  23                                                
   RAIN           Col  25 -  29                                                
   DEWP           Col  31 -  35                                                
   WIND           Col  37 -  41                                                
   PAR            Col  43 -  47                                                
   RHUM           Col  55 -  59                                                

 ENDRUN  YEAR DOY = 2015 202
 Normal end of run        2                                                    

******************************************************************************

*DSSAT Cropping System Model Ver. 4.7.5.007 -  JAN 21, 2026 10:11:01

 CSM     YEAR DOY = 2015 148
 RNMODE = B                                                                    
 PATHEX =                                                                      
 FILEX  = EMEP1403.BNX                                                         
 FILEB  = DSSBatch.v47                                                         
 FILEIO = DSSAT47.INP                                                          
 MODEL  = CRGRO047                                                             
 TRTNUM =     3                                                                

 SOILDYN  YEAR DOY = 2015 148
 The soil file has missing or invalid data.                                    
 Default values have been used for these variables:                            
   ADCOEF                                                                      
 These defaults may or may not be important to your results.                   

 RETC  YEAR DOY = 2015 148
 Soil RETC parameters:                                                         
  LYR DS  SWCN   WCR    Hb Lambd  Alpha     m     n Texture                    
   1  10  0.10 0.094   2.9 0.106  0.016 0.112 1.126 Clay                       
   2  20  0.10 0.097   6.6 0.104  0.008 0.107 1.120 Clay                       
   3  30  0.10 0.095   4.1 0.105  0.012 0.109 1.122 Clay                       
   4  40  0.10 0.099   5.5 0.105  0.010 0.109 1.122 Clay                       
   5  50  0.10 0.099   5.5 0.105  0.010 0.109 1.122 Clay                       
   6  60  0.10 0.099   5.5 0.105  0.010 0.109 1.122 Clay                       
   7  70  0.10 0.099   5.5 0.105  0.010 0.109 1.122 Clay                       
   8  80  0.10 0.099   5.5 0.105  0.010 0.109 1.122 Clay                       
   9  90  0.10 0.099   5.5 0.105  0.010 0.109 1.122 Clay                       

 SOILDYN  YEAR DOY = 2015 148
 Soil ID: GOST000002                                                           
 LATOSSOLO V. DISTROFICO(2015)                                                 
                                                                               
   SALB SWCON    CN  DMOD  SLPF SMPX                                           
   0.14  0.30  83.0  1.00  0.90 IB00                                           
 Soil layer distribution method: 3                                             
      DS DLAYR    LL   DUL   SAT  Root    BD    OC  CLAY  SILT  SAND           
 LYR  cm    cm  frac  frac  frac  Grow g/cm3     %     %     %     %    pH     
   1  10    10 0.283 0.377 0.460 1.000  1.76  1.67  41.1  26.3  32.6   5.0     
   2  20    10 0.292 0.387 0.440 0.800  1.88  1.23  45.2  23.0  31.8   5.0     
   3  30    10 0.286 0.380 0.450 0.600  1.85  1.06  43.2  25.8  31.0   5.0     
   4  40    10 0.299 0.398 0.460 0.300  1.82  0.87  45.4  23.5  31.1   5.0     
   5  50    10 0.299 0.398 0.460 0.100  1.82  0.87  45.4  23.5  31.1   5.0     
   6  60    10 0.299 0.398 0.460 0.000  1.82  0.87  45.4  23.5  31.1   5.0     
   7  70    10 0.299 0.398 0.460 0.000  1.82  0.87  45.4  23.5  31.1   5.0     
   8  80    10 0.299 0.398 0.460 0.000  1.82  0.87  45.4  23.5  31.1   5.0     
   9  90    10 0.299 0.398 0.460 0.000  1.82  0.87  45.4  23.5  31.1   5.0     

 SOILDYN  YEAR DOY = 2015 148
 Additional soil properties                                                    
                Convert                                                        
    Cation Adsrp  ppm /  KSAT  SLCF  TOTN  OrgN                                
   L  Exch  Coef  kg/ha  cm/h     %     % kg/ha                                
   1  10.0   0.0   0.57   0.1   0.0  0.10  1749                                
   2   9.0   0.0   0.53   0.1   0.0  0.10  1869                                
   3   8.0   0.0   0.54   0.1   0.0  0.10  1839                                
   4   8.0   0.0   0.55   0.1   0.0  0.10  1809                                
   5   8.0   0.0   0.55   0.1   0.0  0.10  1809                                
   6   8.0   0.0   0.55   0.1   0.0  0.10  1809                                
   7   8.0   0.0   0.55   0.1   0.0  0.10  1809                                
   8   8.0   0.0   0.55   0.1   0.0  0.10  1809                                
   9   8.0   0.0   0.55   0.1   0.0  0.10  1809                                

 IPWTH   YEAR DOY = 2015 148
 AFGO1401.WTH                                                                  
 Found daily weather data headers for:                                         
   SRAD           Col   7 -  11                                                
   TMAX           Col  13 -  17                                                
   TMIN           Col  19 -  23                                                
   RAIN           Col  25 -  29                                                
   DEWP           Col  31 -  35                                                
   WIND           Col  37 -  41                                                
   PAR            Col  43 -  47                                                
   RHUM           Col  55 -  59                                                

 ENDRUN  YEAR DOY = 2015 224
 Normal end of run        3                                                    

******************************************************************************

*DSSAT Cropping System Model Ver. 4.7.5.007 -  JAN 21, 2026 10:11:01

 CSM     YEAR DOY = 2015 161
 RNMODE = B                                                                    
 PATHEX =                                                                      
 FILEX  = EMEP1403.BNX                                                         
 FILEB  = DSSBatch.v47                                                         
 FILEIO = DSSAT47.INP                                                          
 MODEL  = CRGRO047                                                             
 TRTNUM =     4                                                                

 SOILDYN  YEAR DOY = 2015 161
 The soil file has missing or invalid data.                                    
 Default values have been used for these variables:                            
   ADCOEF                                                                      
 These defaults may or may not be important to your results.                   

 RETC  YEAR DOY = 2015 161
 Soil RETC parameters:                                                         
  LYR DS  SWCN   WCR    Hb Lambd  Alpha     m     n Texture                    
   1  10  0.10 0.094   2.9 0.106  0.016 0.112 1.126 Clay                       
   2  20  0.10 0.097   6.6 0.104  0.008 0.107 1.120 Clay                       
   3  30  0.10 0.095   4.1 0.105  0.012 0.109 1.122 Clay                       
   4  40  0.10 0.099   5.5 0.105  0.010 0.109 1.122 Clay                       
   5  50  0.10 0.099   5.5 0.105  0.010 0.109 1.122 Clay                       
   6  60  0.10 0.099   5.5 0.105  0.010 0.109 1.122 Clay                       
   7  70  0.10 0.099   5.5 0.105  0.010 0.109 1.122 Clay                       
   8  80  0.10 0.099   5.5 0.105  0.010 0.109 1.122 Clay                       
   9  90  0.10 0.099   5.5 0.105  0.010 0.109 1.122 Clay                       

 SOILDYN  YEAR DOY = 2015 161
 Soil ID: GOST000002                                                           
 LATOSSOLO V. DISTROFICO(2015)                                                 
                                                                               
   SALB SWCON    CN  DMOD  SLPF SMPX                                           
   0.14  0.30  83.0  1.00  0.90 IB00                                           
 Soil layer distribution method: 3                                             
      DS DLAYR    LL   DUL   SAT  Root    BD    OC  CLAY  SILT  SAND           
 LYR  cm    cm  frac  frac  frac  Grow g/cm3     %     %     %     %    pH     
   1  10    10 0.283 0.377 0.460 1.000  1.76  1.67  41.1  26.3  32.6   5.0     
   2  20    10 0.292 0.387 0.440 0.800  1.88  1.23  45.2  23.0  31.8   5.0     
   3  30    10 0.286 0.380 0.450 0.600  1.85  1.06  43.2  25.8  31.0   5.0     
   4  40    10 0.299 0.398 0.460 0.300  1.82  0.87  45.4  23.5  31.1   5.0     
   5  50    10 0.299 0.398 0.460 0.100  1.82  0.87  45.4  23.5  31.1   5.0     
   6  60    10 0.299 0.398 0.460 0.000  1.82  0.87  45.4  23.5  31.1   5.0     
   7  70    10 0.299 0.398 0.460 0.000  1.82  0.87  45.4  23.5  31.1   5.0     
   8  80    10 0.299 0.398 0.460 0.000  1.82  0.87  45.4  23.5  31.1   5.0     
   9  90    10 0.299 0.398 0.460 0.000  1.82  0.87  45.4  23.5  31.1   5.0     

 SOILDYN  YEAR DOY = 2015 161
 Additional soil properties                                                    
                Convert                                                        
    Cation Adsrp  ppm /  KSAT  SLCF  TOTN  OrgN                                
   L  Exch  Coef  kg/ha  cm/h     %     % kg/ha                                
   1  10.0   0.0   0.57   0.1   0.0  0.10  1749                                
   2   9.0   0.0   0.53   0.1   0.0  0.10  1869                                
   3   8.0   0.0   0.54   0.1   0.0  0.10  1839                                
   4   8.0   0.0   0.55   0.1   0.0  0.10  1809                                
   5   8.0   0.0   0.55   0.1   0.0  0.10  1809                                
