*Surface Mulch daily output file

*DSSAT Cropping System Model Ver. 4.7.5.007 -  JAN 21, 2026 10:11:01
@YEAR DOY   DAS    MCFD   MDEPD    MWAD    MWTD
 2015 102     0   0.000    0.00       0    0.00
 2015 103     1   0.000    0.00       0    0.00
 2015 104     2   0.000    0.00       0    0.00
 2015 105     3   0.000    0.00       0    0.00
 2015 106     4   0.000    0.00       0    0.00
 2015 107     5   0.000    0.00       0    0.00
 2015 108     6   0.000    0.00       0    0.00
 2015 109     7   0.000    0.00       0    0.00
 2015 110     8   0.000    0.00       0    0.00
 2015 111     9   0.000    0.00       0    0.00
 2015 112    10   0.000    0.00       1    0.00
 2015 113    11   0.000    0.00       1    0.00
 2015 114    12   0.000    0.00       1    0.00
 2015 115    13   0.000    0.00       1    0.00
 2015 116    14   0.001    0.00       2    0.00
 2015 117    15   0.001    0.00       2    0.00
 2015 118    16   0.001    0.00       3    0.00
 2015 119    17   0.001    0.00       4    0.00
 2015 120    18   0.001    0.00       5    0.00
 2015 121    19   0.001    0.00       5    0.00
 2015 122    20   0.002    0.00       6    0.00
 2015 123    21   0.002    0.00       6    0.00
 2015 124    22   0.002    0.00       6    0.00
 2015 125    23   0.002    0.00       7    0.00
 2015 126    24   0.003    0.00       9    0.00
 2015 127    25   0.003    0.00      11    0.00
 2015 128    26   0.004    0.00      13    0.00
 2015 129    27   0.005    0.00      15    0.00
 2015 130    28   0.005    0.00      15    0.00
 2015 131    29   0.005    0.00      15    0.01
 2015 132    30   0.011    0.00      33    0.01
 2015 133    31   0.014    0.00      43    0.01
 2015 134    32   0.018    0.00      56    0.01
 2015 135    33   0.027    0.00      85    0.02
 2015 136    34   0.028    0.00      89    0.02
 2015 137    35   0.033    0.00     106    0.02
 2015 138    36   0.039    0.00     123    0.02
 2015 139    37   0.048    0.00     153    0.05
 2015 140    38   0.059    0.00     189    0.06
 2015 141    39   0.060    0.00     192    0.06
 2015 142    40   0.062    0.00     201    0.06
 2015 143    41   0.068    0.00     219    0.06
 2015 144    42   0.069    0.00     222    0.06
 2015 145    43   0.072    0.00     233    0.05
 2015 146    44   0.076    0.00     246    0.05
 2015 147    45   0.081    0.01     265    0.05
 2015 148    46   0.084    0.01     275    0.05
 2015 149    47   0.085    0.01     277    0.05
 2015 150    48   0.087    0.01     285    0.05
 2015 151    49   0.090    0.01     294    0.05
 2015 152    50   0.093    0.01     304    0.04
 2015 153    51   0.096    0.01     315    0.04
 2015 154    52   0.099    0.01     327    0.04
 2015 155    53   0.103    0.01     339    0.04
 2015 156    54   0.107    0.01     353    0.04
 2015 157    55   0.115    0.01     380    0.04
 2015 158    56   0.118    0.01     392    0.04
 2015 159    57   0.121    0.01     403    0.04
 2015 160    58   0.124    0.01     414    0.04
 2015 161    59   0.127    0.01     424    0.03
 2015 162    60   0.130    0.01     434    0.03
 2015 163    61   0.133    0.01     445    0.03
 2015 164    62   0.136    0.01     455    0.03
 2015 165    63   0.138    0.02     465    0.03
 2015 166    64   0.141    0.02     474    0.03
 2015 167    65   0.144    0.02     484    0.02
 2015 168    66   0.181    0.03     624    0.02
 2015 169    67   0.208    0.04     729    0.05
 2015 170    68   0.227    0.05     805    0.06
 2015 171    69   0.241    0.05     862    0.06
 2015 172    70   0.251    0.06     903    0.06
 2015 173    71   0.258    0.06     934    0.05
 2015 174    72   0.264    0.06     956    0.05
 2015 175    73   0.268    0.07     973    0.04

*DSSAT Cropping System Model Ver. 4.7.5.007 -  JAN 21, 2026 10:11:01
@YEAR DOY   DAS    MCFD   MDEPD    MWAD    MWTD
 2015 125     0   0.000    0.00       0    0.00
 2015 126     1   0.000    0.00       0    0.00
 2015 127     2   0.000    0.00       0    0.00
 2015 128     3   0.000    0.00       0    0.00
 2015 129     4   0.000    0.00       0    0.00
 2015 130     5   0.000    0.00       0    0.00
 2015 131     6   0.000    0.00       0    0.00
 2015 132     7   0.000    0.00       0    0.00
 2015 133     8   0.000    0.00       0    0.00
 2015 134     9   0.000    0.00       0    0.00
 2015 135    10   0.000    0.00       0    0.00
 2015 136    11   0.000    0.00       0    0.00
 2015 137    12   0.000    0.00       0    0.00
 2015 138    13   0.000    0.00       0    0.00
 2015 139    14   0.000    0.00       0    0.00
 2015 140    15   0.000    0.00       1    0.00
 2015 141    16   0.000    0.00       1    0.00
 2015 142    17   0.000    0.00       1    0.00
 2015 143    18   0.001    0.00       2    0.00
 2015 144    19   0.001    0.00       3    0.00
 2015 145    20   0.001    0.00       3    0.00
 2015 146    21   0.001    0.00       3    0.00
 2015 147    22   0.001    0.00       3    0.00
 2015 148    23   0.001    0.00       5    0.00
 2015 149    24   0.001    0.00       5    0.00
 2015 150    25   0.004    0.00      12    0.00
 2015 151    26   0.008    0.00      25    0.00
 2015 152    27   0.008    0.00      26    0.00
 2015 153    28   0.009    0.00      28    0.00
 2015 154    29   0.009    0.00      29    0.01
 2015 155    30   0.009    0.00      29    0.01
 2015 156    31   0.009    0.00      29    0.01
 2015 157    32   0.010    0.00      33    0.01
 2015 158    33   0.010    0.00      33    0.01
 2015 159    34   0.014    0.00      45    0.01
 2015 160    35   0.022    0.00      69    0.01
 2015 161    36   0.030    0.00      95    0.01
 2015 162    37   0.030    0.00      95    0.02
 2015 163    38   0.035    0.00     110    0.02
 2015 164    39   0.043    0.00     139    0.02
 2015 165    40   0.048    0.00     153    0.02
 2015 166    41   0.052    0.00     168    0.03
 2015 167    42   0.055    0.00     178    0.03
 2015 168    43   0.060    0.00     194    0.03
 2015 169    44   0.060    0.00     195    0.03
 2015 170    45   0.064    0.00     206    0.03
 2015 171    46   0.068    0.00     221    0.03
 2015 172    47   0.070    0.00     228    0.03
 2015 173    48   0.071    0.00     230    0.03
 2015 174    49   0.073    0.00     235    0.03
 2015 175    50   0.075    0.00     244    0.03
 2015 176    51   0.078    0.00     254    0.03
 2015 177    52   0.081    0.01     264    0.03
 2015 178    53   0.084    0.01     273    0.03
 2015 179    54   0.086    0.01     282    0.03
 2015 180    55   0.089    0.01     291    0.03
 2015 181    56   0.092    0.01     300    0.03
 2015 182    57   0.094    0.01     309    0.03
 2015 183    58   0.097    0.01     320    0.03
 2015 184    59   0.100    0.01     329    0.03
 2015 185    60   0.103    0.01     339    0.03
 2015 186    61   0.105    0.01     347    0.02
 2015 187    62   0.107    0.01     355    0.02
 2015 188    63   0.110    0.01     363    0.02
 2015 189    64   0.112    0.01     370    0.14
 2015 190    65   0.113    0.01     376    0.13
 2015 191    66   0.116    0.01     384    0.12
 2015 192    67   0.118    0.01     392    0.11
 2015 193    68   0.120    0.01     400    0.10
 2015 194    69   0.122    0.01     407    0.09
 2015 195    70   0.154    0.02     523    0.08
 2015 196    71   0.177    0.03     609    0.09
 2015 197    72   0.194    0.03     673    0.09
 2015 198    73   0.206    0.04     720    0.09
 2015 199    74   0.215    0.04     755    0.08
 2015 200    75   0.221    0.04     780    0.08
 2015 201    76   0.226    0.05     799    0.07
 2015 202    77   0.229    0.05     813    0.06

*DSSAT Cropping System Model Ver. 4.7.5.007 -  JAN 21, 2026 10:11:01
@YEAR DOY   DAS    MCFD   MDEPD    MWAD    MWTD
 2015 147     0   0.000    0.00       0    0.00
 2015 148     1   0.000    0.00       0    0.00
 2015 149     2   0.000    0.00       0    0.00
 2015 150     3   0.000    0.00       0    0.00
 2015 151     4   0.000    0.00       0    0.00
 2015 152     5   0.000    0.00       0    0.00
 2015 153     6   0.000    0.00       0    0.00
 2015 154     7   0.000    0.00       0    0.00
 2015 155     8   0.000    0.00       0    0.00
 2015 156     9   0.000    0.00       0    0.00
 2015 157    10   0.000    0.00       0    0.00
 2015 158    11   0.000    0.00       0    0.00
 2015 159    12   0.000    0.00       0    0.00
 2015 160    13   0.000    0.00       0    0.00
 2015 161    14   0.000    0.00       0    0.00
 2015 162    15   0.000    0.00       0    0.00
 2015 163    16   0.000    0.00       0    0.00
 2015 164    17   0.000    0.00       0    0.00
 2015 165    18   0.000    0.00       1    0.00
 2015 166    19   0.000    0.00       1    0.00
 2015 167    20   0.000    0.00       1    0.00
 2015 168    21   0.000    0.00       1    0.00
 2015 169    22   0.001    0.00       4    0.00
 2015 170    23   0.003    0.00      10    0.00
 2015 171    24   0.003    0.00      10    0.00
 2015 172    25   0.003    0.00      10    0.00
 2015 173    26   0.003    0.00      10    0.00
 2015 174    27   0.004    0.00      11    0.00
 2015 175    28   0.004    0.00      12    0.00
 2015 176    29   0.008    0.00      26    0.00
 2015 177    30   0.014    0.00      44    0.00
 2015 178    31   0.017    0.00      54    0.01
 2015 179    32   0.017    0.00      54    0.01
 2015 180    33   0.017    0.00      54    0.01
 2015 181    34   0.017    0.00      54    0.01
 2015 182    35   0.018    0.00      57    0.01
 2015 183    36   0.019    0.00      60    0.01
 2015 184    37   0.022    0.00      69    0.01
 2015 185    38   0.030    0.00      94    0.01
 2015 186    39   0.033    0.00     106    0.02
 2015 187    40   0.039    0.00     125    0.02
 2015 188    41   0.045    0.00     144    0.02
 2015 189    42   0.051    0.00     162    0.05
 2015 190    43   0.053    0.00     170    0.06
 2015 191    44   0.054    0.00     174    0.05
 2015 192    45   0.058    0.00     187    0.05
 2015 193    46   0.058    0.00     187    0.05
 2015 194    47   0.061    0.00     197    0.05
 2015 195    48   0.066    0.00     212    0.05
 2015 196    49   0.067    0.00     216    0.05
 2015 197    50   0.067    0.00     218    0.05
 2015 198    51   0.069    0.00     224    0.05
 2015 199    52   0.072    0.00     233    0.04
 2015 200    53   0.075    0.00     242    0.04
 2015 201    54   0.077    0.00     251    0.04
 2015 202    55   0.080    0.01     262    0.04
 2015 203    56   0.083    0.01     272    0.04
 2015 204    57   0.087    0.01     283    0.04
 2015 205    58   0.090    0.01     295    0.04
 2015 206    59   0.093    0.01     306    0.04
 2015 207    60   0.096    0.01     317    0.04
 2015 208    61   0.104    0.01     343    0.04
 2015 209    62   0.111    0.01     366    0.04
 2015 210    63   0.113    0.01     375    0.04
 2015 211    64   0.115    0.01     383    0.04
 2015 212    65   0.118    0.01     393    0.03
 2015 213    66   0.120    0.01     401    0.03
 2015 214    67   0.123    0.01     410    0.03
 2015 215    68   0.125    0.01     418    0.03
 2015 216    69   0.127    0.01     426    0.03
 2015 217    70   0.158    0.02     539    0.03
 2015 218    71   0.181    0.03     623    0.04
 2015 219    72   0.197    0.03     685    0.05
 2015 220    73   0.208    0.04     730    0.06
 2015 221    74   0.217    0.04     763    0.05
 2015 222    75   0.223    0.04     788    0.05
 2015 223    76   0.227    0.05     806    0.05
 2015 224    77   0.231    0.05     819    0.04
