*N2O emissions output file

*DSSAT Cropping System Model Ver. 4.7.5.007 -  JAN 21, 2026 10:11:01
!              |---------------------------------- Cumulative ---------------------------------|---------------------------------- Daily --------------------------------------|
!               N2Oemit  N2emit  NOemit     CO2   Denit  Nitrif   N2O-denit+nit      N2      NO N2Oemit  N2emit  NOemit     CO2   Denit  Nitrif   N2O-denit+nit      N2      NO   Denitrification (g[N]/ha) by soil depth (cm):                           Nitrification (g[N]/ha) by soil depth (cm):                             N2O flux (g[N]/ha) by soil depth (cm):                                  N2 flux (g[N]/ha) by soil depth (cm):                                   NO flux (g[N]/ha) by soil depth (cm):
!                 kg/ha   kg/ha   kg/ha   kg/ha   kg/ha   kg/ha   kg/ha   kg/ha   kg/ha   kg/ha    g/ha    g/ha    g/ha    g/ha    g/ha    g/ha    g/ha    g/ha    g/ha    g/ha    0-10   10-20   20-30   30-40   40-50   50-60   60-70   70-80   80-90    0-10   10-20   20-30   30-40   40-50   50-60   60-70   70-80   80-90    0-10   10-20   20-30   30-40   40-50   50-60   60-70   70-80   80-90    0-10   10-20   20-30   30-40   40-50   50-60   60-70   70-80   80-90    0-10   10-20   20-30   30-40   40-50   50-60   60-70   70-80   80-90
@YEAR DOY   DAS   N2OEC    N2EC    NOEC   CO2TC    NDNC    NITC   N2ODC   N2ONC   N2FLC   NOFLC   N2OED    N2ED    NOED   CO2TD    NDND   NITRD   N2ODD   N2OND   N2FLD   NOFLD   NDN1D   NDN2D   NDN3D   NDN4D   NDN5D   NDN6D   NDN7D   NDN8D   NDN9D   NIT1D   NIT2D   NIT3D   NIT4D   NIT5D   NIT6D   NIT7D   NIT8D   NIT9D   N2O1D   N2O2D   N2O3D   N2O4D   N2O5D   N2O6D   N2O7D   N2O8D   N2O9D   N2F1D   N2F2D   N2F3D   N2F4D   N2F5D   N2F6D   N2F7D   N2F8D   N2F9D   NOF1D   NOF2D   NOF3D   NOF4D   NOF5D   NOF6D   NOF7D   NOF8D   NOF9D   
 2015 103     1    0.00    0.00    0.00       6    0.00     1.8   0.000   0.002   0.000   0.002     0.0     0.0     0.0    5888     0.0    1775    0.00    1.77    0.00    2.00     0.0     0.0     0.0     0.0     0.0     0.0     0.0     0.0     0.0    195.    207.    203.    198.    197.    195.    194.    193.    192.     0.2     0.2     0.2     0.2     0.2     0.2     0.2     0.2     0.2     0.0     0.0     0.0     0.0     0.0     0.0     0.0     0.0     0.0     0.3     0.2     0.2     0.2     0.2     0.2     0.2     0.2     0.2
 2015 104     2    0.00    0.00    0.00      12    0.00     2.9   0.000   0.003   0.000   0.003     0.0     0.0     0.0    5626     0.0    1118    0.00    1.12    0.00    0.69     0.0     0.0     0.0     0.0     0.0     0.0     0.0     0.0     0.0    534.     29.     33.     30.     31.     58.     66.    169.    168.     0.5     0.0     0.0     0.0     0.0     0.1     0.1     0.2     0.2     0.0     0.0     0.0     0.0     0.0     0.0     0.0     0.0     0.0     0.2     0.0     0.0     0.0     0.0     0.0     0.1     0.2     0.1
 2015 105     3    0.00    0.00    0.00      17    0.00     4.1   0.000   0.004   0.000   0.003     0.0     0.0     0.0    5575     0.0    1203    0.00    1.20    0.00    0.53     0.0     0.0     0.0     0.0     0.0     0.0     0.0     0.0     0.0    795.     31.     34.     29.     28.     30.     54.     56.    146.     0.8     0.0     0.0     0.0     0.0     0.0     0.1     0.1     0.1     0.0     0.0     0.0     0.0     0.0     0.0     0.0     0.0     0.0     0.3     0.0     0.0     0.0     0.0     0.0     0.0     0.0     0.1
 2015 106     4    0.00    0.00    0.00      23    0.00     5.6   0.000   0.006   0.000   0.004     0.0     0.0     0.0    5717     0.0    1498    0.00    1.50    0.00    0.57     0.0     0.0     0.0     0.0     0.0     0.0     0.0     0.0     0.0   1075.     49.     42.     33.     33.     33.     50.     54.    129.     1.1     0.0     0.0     0.0     0.0     0.0     0.0     0.1     0.1     0.0     0.0     0.0     0.0     0.0     0.0     0.0     0.0     0.0     0.4     0.0     0.0     0.0     0.0     0.0     0.0     0.0     0.1
 2015 107     5    0.00    0.00    0.00      28    0.00     6.7   0.000   0.007   0.000   0.004     0.0     0.0     0.0    5473     0.0    1058    0.00    1.06    0.00    0.27     0.0     0.0     0.0     0.0     0.0     0.0     0.0     0.0     0.0    780.     50.     36.     30.     30.     28.     27.     35.     42.     0.8     0.1     0.0     0.0     0.0     0.0     0.0     0.0     0.0     0.0     0.0     0.0     0.0     0.0     0.0     0.0     0.0     0.0     0.2     0.0     0.0     0.0     0.0     0.0     0.0     0.0     0.0
 2015 108     6    0.00    0.00    0.00      34    0.48     7.9   0.006   0.008   0.475   0.005     0.1     0.6     0.0    5605   481.7    1269    6.38    1.27  475.30    1.28    58.5    61.3    66.2    72.1    73.5    74.4    75.5     0.0     0.0    965.     58.     46.     34.     33.     31.     29.     34.     39.     1.9     0.8     1.0     1.0     1.0     1.0     1.0     0.0     0.0    57.5    60.5    65.3    71.2    72.6    73.5    74.6     0.0     0.0     0.4     0.1     0.2     0.1     0.1     0.1     0.1     0.0     0.0
 2015 109     7    0.00    0.00    0.00      39    1.08     8.9   0.013   0.009   1.065   0.006     0.0     0.6     0.0    5408   596.4    1001    6.30    1.00  590.09    1.11    66.5    60.7    74.7    75.7    78.5    79.3    79.8    81.1     0.0    741.     56.     39.     32.     31.     30.     28.     25.     19.     1.5     0.7     0.8     0.8     0.8     0.8     0.8     1.0     0.0    65.8    60.1    74.0    75.0    77.7    78.5    79.0    80.1     0.0     0.2     0.1     0.1     0.1     0.1     0.1     0.1     0.1     0.0
 2015 110     8    0.00    0.00    0.00      45    1.44    10.3   0.016   0.010   1.420   0.007     0.1     2.5     0.0    5822   357.7    1394    3.53    1.39  354.14    0.88    46.4    33.8    44.2    44.5    46.4    47.0    47.4    48.1     0.0    992.     81.     61.     50.     49.     47.     45.     39.     32.     1.5     0.4     0.5     0.5     0.5     0.5     0.5     0.6     0.0    45.9    33.5    43.8    44.0    45.9    46.6    46.9    47.5     0.0     0.3     0.1     0.1     0.1     0.1     0.1     0.1     0.1     0.0
 2015 111     9    0.00    0.00    0.00      51    1.92    11.2   0.021   0.011   1.904   0.008     0.0     0.4     0.0    5652   488.9     879    4.69    0.88  484.18    0.91   102.0    70.5    61.6    47.5    42.3    40.9    40.7    41.2    42.2    504.     50.     50.     48.     51.     50.     48.     43.     35.     1.4     0.6     0.6     0.5     0.5     0.4     0.4     0.4     0.7   101.2    69.9    61.0    47.0    41.9    40.5    40.3    40.8    41.6     0.2     0.1     0.1     0.1     0.1     0.1     0.1     0.1     0.1
 2015 112    10    0.00    0.01    0.00      56    2.49    12.2   0.026   0.012   2.461   0.009     0.0     1.5     0.0    5712   562.7    1001    5.11    1.00  557.55    0.96    77.6    63.5    74.8    77.0    80.9    64.6    45.0    39.9    39.4    662.     58.     43.     34.     33.     40.     48.     45.     38.     1.4     0.6     0.7     0.7     0.7     0.6     0.5     0.4     0.5    76.8    62.9    74.2    76.3    80.2    64.0    44.6    39.5    38.9     0.2     0.1     0.1     0.1     0.1     0.1     0.1     0.1     0.1
 2015 113    11    0.00    0.01    0.00      62    2.81    13.5   0.029   0.014   2.778   0.010     0.2     5.7     0.0    5873   319.9    1328    3.16    1.33  316.71    0.84    50.4    33.8    43.1    44.4    46.9    36.6    23.9    20.6    20.1    867.     82.     64.     52.     50.     54.     58.     54.     46.     1.4     0.4     0.5     0.5     0.5     0.4     0.3     0.3     0.3    49.9    33.5    42.6    44.0    46.5    36.3    23.7    20.4    19.9     0.3     0.1     0.1     0.1     0.1     0.1     0.1     0.1     0.1
 2015 114    12    0.00    0.01    0.00      68    3.42    14.3   0.034   0.014   3.381   0.011     0.0     0.7     0.0    5515   608.6     765    5.29    0.77  603.29    0.92    87.0    65.2    71.6    73.5    77.4    78.9    79.5    51.0    24.5    454.     52.     42.     35.     34.     33.     31.     40.     44.     1.2     0.6     0.7     0.7     0.7     0.7     0.7     0.5     0.3    86.3    64.6    70.9    72.8    76.8    78.3    78.8    50.5    24.2     0.2     0.1     0.1     0.1     0.1     0.1     0.1     0.1     0.1
 2015 115    13    0.00    0.02    0.00      74    3.95    15.3   0.039   0.015   3.909   0.012     0.1     4.2     0.0    5712   532.8     998    4.80    1.00  528.01    0.93    62.1    57.4    58.1    66.2    69.1    70.2    70.6    51.5    27.6    655.     58.     51.     39.     38.     37.     35.     40.     43.     1.3     0.6     0.6     0.6     0.6     0.6     0.7     0.5     0.3    61.5    56.9    57.6    65.6    68.5    69.6    70.0    51.0    27.4     0.2     0.1     0.1     0.1     0.1     0.1     0.1     0.1     0.1
 2015 116    14    0.00    0.03    0.00      79    4.25    16.6   0.042   0.017   4.208   0.013     0.3    11.9     0.1    5897   302.0    1296    3.00    1.30  298.99    0.84    38.4    29.6    32.8    38.3    40.1    40.8    41.1    28.5    12.5    818.     84.     72.     57.     56.     54.     52.     52.     51.     1.3     0.4     0.4     0.4     0.4     0.4     0.4     0.3     0.2    38.0    29.3    32.4    37.9    39.7    40.4    40.7    28.2    12.4     0.3     0.1     0.1     0.1     0.1     0.1     0.1     0.1     0.0
 2015 117    15    0.00    0.03    0.00      85    4.59    17.5   0.046   0.017   4.548   0.013     0.0     1.4     0.0    5778   343.0     894    3.28    0.89  339.69    0.74   104.5    42.0    27.5    31.9    33.1    33.5    33.7    25.2    11.7    414.     71.     75.     60.     59.     57.     55.     53.     51.     1.3     0.5     0.4     0.4     0.4     0.4     0.4     0.3     0.2   103.5    41.6    27.2    31.5    32.8    33.2    33.3    24.9    11.6     0.2     0.1     0.1     0.1     0.1     0.1     0.1     0.1     0.0
 2015 118    16    0.00    0.04    0.00      91    4.86    18.6   0.048   0.019   4.812   0.014     0.2     7.9     0.0    5859   266.5    1106    2.69    1.11  263.81    0.74    67.5    38.0    23.1    26.3    26.9    26.9    26.9    21.0    10.0    602.     74.     77.     63.     63.     61.     59.     56.     52.     1.3     0.4     0.3     0.3     0.3     0.3     0.3     0.3     0.2    66.8    37.6    22.9    26.0    26.6    26.6    26.6    20.8     9.9     0.2     0.1     0.1     0.1     0.1     0.1     0.1     0.1     0.0
 2015 119    17    0.00    0.04    0.00      97    5.52    20.3   0.054   0.020   5.464   0.015     0.0     0.5     0.0    5442   657.8    1683    5.64    1.68  652.18    1.08    94.3    53.3    64.3    68.6    75.2    78.9    80.8    82.4    60.0   1388.     57.     43.     36.     34.     33.     31.     28.     32.     2.2     0.5     0.6     0.6     0.7     0.7     0.7     0.7     0.6    93.6    52.9    63.8    68.0    74.5    78.2    80.1    81.7    59.4     0.3     0.1     0.1     0.1     0.1     0.1     0.1     0.1     0.1
 2015 120    18    0.00    0.05    0.00     102    5.89    23.3   0.057   0.023   5.836   0.016     0.2     7.5     0.0    5773   376.1    2995    3.62    3.00  372.51    1.15    64.5    22.9    34.3    38.2    42.9    45.5    46.8    47.7    33.3   2562.     81.     64.     53.     52.     50.     48.     43.     43.     3.2     0.3     0.4     0.4     0.5     0.5     0.5     0.5     0.4    63.9    22.6    34.0    37.8    42.5    45.1    46.3    47.3    33.0     0.6     0.1     0.1     0.1     0.1     0.1     0.1     0.1     0.1
 2015 121    19    0.00    0.05    0.00     107    6.32    25.0   0.061   0.025   6.261   0.017     0.1     3.7     0.0    4754   428.5    1780    3.90    1.78  424.63    0.91    80.4    50.2    55.7    56.6    41.4    37.9    37.7    38.4    30.2   1495.     39.     31.     28.     38.     40.     39.     36.     34.     2.2     0.5     0.5     0.5     0.4     0.4     0.4     0.4     0.3    79.7    49.7    55.2    56.1    41.0    37.6    37.3    38.0    29.9     0.3     0.1     0.1     0.1     0.1     0.1     0.1     0.1     0.1
 2015 122    20    0.00    0.07    0.00     112    6.55    27.4   0.064   0.027   6.490   0.018     0.4    16.1     0.1    4788   231.3    2407    2.34    2.41  229.00    0.94    49.2    23.5    30.1    31.5    22.2    20.0    19.8    20.2    14.8   2036.     58.     48.     41.     47.     48.     47.     43.     40.     2.6     0.3     0.3     0.3     0.3     0.3     0.2     0.2     0.2    48.7    23.3    29.8    31.2    21.9    19.8    19.6    20.0    14.6     0.5     0.1     0.1     0.1     0.1     0.1     0.1     0.1     0.0
 2015 123    21    0.00    0.10    0.00     117    6.65    30.2   0.065   0.030   6.587   0.019     1.0    35.3     0.2    4747    97.9    2762    1.08    2.76   96.86    1.02    22.2     7.0    13.4    15.7     9.9     8.5     8.2     8.4     4.7   2335.     69.     59.     50.     53.     53.     52.     48.     43.     2.6     0.1     0.2     0.2     0.2     0.1     0.1     0.1     0.1    22.0     6.9    13.2    15.5     9.8     8.4     8.1     8.3     4.6     0.7     0.0     0.0     0.0     0.0     0.0     0.0     0.0     0.0
 2015 124    22    0.00    0.15    0.00     121    6.66    35.6   0.065   0.036   6.599   0.021     1.7    52.3     0.4    4689    12.3    5416    0.14    5.42   12.11    1.97     0.0     0.0     3.1     5.4     1.9     0.8     0.5     0.5     0.0   4761.    202.     64.     55.     56.     56.     55.     51.    116.     4.8     0.2     0.1     0.1     0.1     0.1     0.1     0.1     0.1     0.0     0.0     3.1     5.4     1.8     0.8     0.5     0.5     0.0     1.8     0.1     0.0     0.0     0.0     0.0     0.0     0.0     0.0
 2015 125    23    0.00    0.15    0.00     126    6.67    37.1   0.065   0.037   6.608   0.022     0.0     1.4     0.0    4478     8.7    1479    0.10    1.48    8.63    0.34     0.0     0.0     4.9     3.4     0.4     0.0     0.0     0.0     0.0    764.     45.     58.     53.     54.    139.    136.    127.    103.     0.8     0.0     0.1     0.1     0.1     0.1     0.1     0.1     0.1     0.0     0.0     4.8     3.4     0.4     0.0     0.0     0.0     0.0     0.1     0.0     0.0     0.0     0.0     0.0     0.0     0.0     0.0
 2015 126    24    0.00    0.16    0.00     131    6.71    39.1   0.065   0.039   6.644   0.022     0.1     3.8     0.0    5249    37.2    1984    0.39    1.98   36.80    0.48     0.0     0.0    26.1     9.5     1.5     0.0     0.0     0.0     0.0   1198.     38.     56.     61.     66.    156.    152.    141.    115.     1.2     0.0     0.3     0.2     0.1     0.2     0.2     0.1     0.1     0.0     0.0    25.8     9.4     1.5     0.0     0.0     0.0     0.0     0.2     0.0     0.1     0.0     0.0     0.0     0.0     0.0     0.0
 2015 127    25    0.00    0.16    0.00     136    6.91    40.5   0.067   0.040   6.846   0.023     0.1     2.2     0.0    4997   203.4    1403    1.72    1.40  201.66    0.50     0.0     0.0    66.5    65.3    71.6     0.0     0.0     0.0     0.0    973.     35.     31.     27.     26.     34.     48.    125.    103.     1.0     0.0     0.6     0.6     0.6     0.0     0.0     0.1     0.1     0.0     0.0    66.0    64.7    71.0     0.0     0.0     0.0     0.0     0.1     0.0     0.1     0.1     0.1     0.0     0.0     0.0     0.0
 2015 128    26    0.01    0.17    0.00     141    7.09    42.2   0.069   0.042   7.019   0.023     0.4     9.8     0.1    5131   174.3    1717    1.53    1.72  172.79    0.55     0.0     0.0    51.8    58.1    64.5     0.0     0.0     0.0     0.0   1360.     42.     40.     31.     30.     33.     44.     44.     95.     1.4     0.0     0.5     0.5     0.6     0.0     0.0     0.0     0.1     0.0     0.0    51.3    57.6    63.9     0.0     0.0     0.0     0.0     0.2     0.0     0.1     0.1     0.1     0.0     0.0     0.0     0.0
 2015 129    27    0.01    0.20    0.00     146    7.27    44.4   0.071   0.044   7.195   0.024     1.0    26.4     0.2    5210   177.4    2143    1.82    2.14  175.57    0.87    48.9    28.3    27.8    33.7    38.7     0.0     0.0     0.0     0.0   1647.     59.     55.     45.     44.     42.     49.    114.     88.     2.2     0.3     0.3     0.4     0.4     0.0     0.0     0.1     0.1    48.4    28.0    27.5    33.4    38.3     0.0     0.0     0.0     0.0     0.5     0.1     0.1     0.1     0.1     0.0     0.0     0.0     0.0
 2015 130    28    0.01    0.24    0.00     152    7.34    46.6   0.071   0.047   7.268   0.025     1.7    45.0     0.4    5254    74.1    2277    0.81    2.28   73.34    0.90    13.3     8.0    11.8    18.3    22.6     0.0     0.0     0.0     0.0   1748.     67.     65.     55.     54.     48.     52.    106.     83.     1.9     0.2     0.2     0.2     0.3     0.0     0.1     0.1     0.1    13.2     7.9    11.7    18.1    22.4     0.0     0.0     0.0     0.0     0.6     0.0     0.0     0.1     0.1     0.0     0.0     0.0     0.0
 2015 131    29    0.01    0.29    0.00     157    7.37    50.6   0.072   0.051   7.294   0.026     2.1    51.8     0.5    5280    26.0    4012    0.28    4.01   25.77    1.48     0.0     0.0     0.5     7.0    11.2     7.4     0.0     0.0     0.0   3261.    193.     70.     61.     60.     53.    137.     98.     79.     3.3     0.2     0.1     0.1     0.2     0.1     0.1     0.1     0.1     0.0     0.0     0.5     6.9    11.0     7.3     0.0     0.0     0.0     1.2     0.1     0.0     0.0     0.0     0.0     0.0     0.0     0.0
 2015 132    30    0.01    0.29    0.00     162    7.57    51.5   0.073   0.051   7.494   0.027     0.0     1.1     0.0    4854   202.2     834    1.78    0.83  200.40    0.43     0.0     0.0    71.0    65.4    46.7    19.1     0.0     0.0     0.0    475.     24.     26.     25.     37.     45.     44.     86.     71.     0.5     0.0     0.6     0.6     0.5     0.2     0.0     0.1     0.1     0.0     0.0    70.4    64.8    46.3    18.9     0.0     0.0     0.0     0.1     0.0     0.1     0.1     0.1     0.1     0.0     0.0     0.0
 2015 133    31    0.01    0.30    0.00     167    7.69    52.6   0.075   0.053   7.613   0.027     0.3     8.4     0.1    4877   119.7    1080    1.15    1.08  118.52    0.41     0.0     0.0    41.3    39.3    28.3    10.8     0.0     0.0     0.0    698.     35.     38.     36.     44.     46.     43.     76.     64.     0.7     0.0     0.4     0.4     0.3     0.2     0.0     0.1     0.1     0.0     0.0    40.9    38.9    28.0    10.7     0.0     0.0     0.0     0.1     0.0     0.1     0.1     0.1     0.0     0.0     0.0     0.0
 2015 134    32    0.01    0.32    0.00     171    7.80    53.7   0.076   0.054   7.720   0.028     0.8    19.1     0.2    4693   108.4    1126    1.06    1.13  107.38    0.44     0.0     0.0    30.4    34.1    28.7    15.3     0.0     0.0     0.0    762.     36.     41.     36.     41.     42.     40.     69.     59.     0.8     0.0     0.3     0.4     0.3     0.2     0.0     0.1     0.1     0.0     0.0    30.1    33.7    28.4    15.1     0.0     0.0     0.0     0.2     0.0     0.1     0.1     0.1     0.0     0.0     0.0     0.0
 2015 135    33    0.01    0.32    0.00     176    7.95    54.4   0.077   0.054   7.877   0.028     0.1     2.1     0.0    4548   158.7     676    1.45    0.68  157.25    0.36     0.0     0.0    61.8    44.7    32.5    19.6     0.0     0.0     0.0    397.     24.     26.     30.     39.     40.     39.     25.     57.     0.4     0.0     0.6     0.4     0.3     0.2     0.0     0.0     0.1     0.0     0.0    61.3    44.3    32.2    19.4     0.0     0.0     0.0     0.1     0.0     0.1     0.1     0.1     0.1     0.0     0.0     0.0
 2015 136    34    0.01    0.33    0.00     180    8.43    54.9   0.081   0.055   8.352   0.029     0.1     2.8     0.0    4316   479.4     561    4.13    0.56  475.22    0.70    95.0    70.8    63.5    57.8    61.8    68.2    62.2     0.0     0.0    386.     24.     25.     23.     22.     19.     20.     22.     21.     1.2     0.6     0.6     0.5     0.5     0.6     0.6     0.0     0.0    94.1    70.2    63.0    57.3    61.3    67.6    61.7     0.0     0.0     0.2     0.1     0.1     0.1     0.1     0.1     0.1     0.0     0.0
 2015 137    35    0.01    0.34    0.00     185    8.73    55.8   0.084   0.056   8.642   0.029     0.5    13.9     0.1    4662   292.5     843    2.80    0.84  289.75    0.64    55.6    37.2    37.9    36.5    40.2    44.6    40.6     0.0     0.0    559.     35.     38.     35.     35.     30.     28.     25.     58.     1.1     0.4     0.4     0.4     0.4     0.4     0.4     0.0     0.1    55.0    36.8    37.5    36.1    39.8    44.2    40.2     0.0     0.0     0.2     0.1     0.1     0.1     0.1     0.1     0.1     0.0     0.0
 2015 138    36    0.01    0.38    0.00     190    8.87    56.8   0.086   0.057   8.789   0.030     1.4    35.8     0.3    4835   148.4    1022    1.54    1.02  146.84    0.59    21.8    10.9    17.4    20.0    24.5    28.3    25.4     0.0     0.0    674.     44.     49.     46.     46.     39.     36.     29.     59.     0.9     0.2     0.2     0.2     0.3     0.3     0.3     0.0     0.1    21.5    10.8    17.2    19.8    24.3    28.0    25.1     0.0     0.0     0.2     0.0     0.1     0.0     0.1     0.1     0.1     0.0     0.0
 2015 139    37    0.02    0.43    0.00     195    8.94    58.6   0.086   0.059   8.850   0.031     2.2    57.5     0.5    4958    61.3    1810    0.65    1.81   60.69    0.76     0.0     0.0     4.2     9.2    13.9    17.2    15.0     1.9     0.0   1337.    132.     55.     53.     54.     47.     42.     31.     59.     1.3     0.1     0.1     0.2     0.2     0.2     0.2     0.1     0.1     0.0     0.0     4.1     9.1    13.8    17.0    14.8     1.9     0.0     0.5     0.0     0.0     0.0     0.0     0.0     0.0     0.0     0.0
 2015 140    38    0.02    0.44    0.00     200    8.98    60.3   0.087   0.060   8.898   0.031     0.1     2.4     0.0    4962    48.4    1694    0.52    1.69   47.91    0.42     0.0     0.0     3.0     5.0     9.7    13.8    13.2     3.6     0.0   1310.     34.     57.     54.     56.     49.     44.     32.     58.     1.3     0.0     0.1     0.1     0.2     0.2     0.2     0.1     0.1     0.0     0.0     3.0     5.0     9.6    13.7    13.0     3.6     0.0     0.2     0.0     0.0     0.0     0.0     0.0     0.0     0.0     0.0
 2015 141    39    0.02    0.45    0.00     205    9.02    62.5   0.087   0.062   8.936   0.032     0.4    11.0     0.1    5071    38.4    2202    0.42    2.20   38.01    0.53     0.0     0.0     4.8     3.2     6.1    10.1    10.5     3.8     0.0   1810.     35.     57.     53.     58.     52.     46.     33.     58.     1.8     0.0     0.1     0.1     0.1     0.2     0.2     0.1     0.1     0.0     0.0     4.7     3.1     6.1     9.9    10.4     3.8     0.0     0.3     0.0     0.0     0.0     0.0     0.0     0.0     0.0     0.0
 2015 142    40    0.02    0.48    0.00     210    9.03    65.3   0.087   0.065   8.946   0.032     1.5    34.3     0.3    5176    10.3    2825    0.11    2.83   10.17    0.79     0.0     0.0     0.0     0.0     1.2     4.2     4.3     0.6     0.0   2232.     48.    141.    142.     62.     56.     50.     36.     58.     2.2     0.0     0.1     0.1     0.1     0.1     0.1     0.0     0.1     0.0     0.0     0.0     0.0     1.2     4.1     4.2     0.6     0.0     0.6     0.0     0.0     0.0     0.0     0.0     0.0     0.0     0.0
 2015 143    41    0.02    0.48    0.00     215    9.06    66.7   0.087   0.067   8.971   0.033     0.1     3.2     0.0    5028    25.7    1363    0.27    1.36   25.43    0.30     0.0     0.0     0.0     0.0    15.7     6.4     3.2     0.5     0.0   1040.     25.     24.     24.     52.     55.     50.     37.     57.     1.0     0.0     0.0     0.0     0.2     0.1     0.1     0.0     0.1     0.0     0.0     0.0     0.0    15.5     6.3     3.1     0.4     0.0     0.2     0.0     0.0     0.0     0.0     0.0     0.0     0.0     0.0
 2015 144    42    0.02    0.50    0.00     220    9.16    68.5   0.089   0.068   9.072   0.033     0.7    16.4     0.2    5153   101.4    1813    1.05    1.81  100.35    0.58    59.8    30.7     0.0     0.0     8.2     2.1     0.7     0.0     0.0   1388.     37.     39.     35.     55.     56.     51.     97.     55.     2.0     0.3     0.0     0.0     0.1     0.1     0.1     0.1     0.1    59.2    30.4     0.0     0.0     8.1     2.1     0.6     0.0     0.0     0.4     0.1     0.0     0.0     0.0     0.0     0.0     0.0     0.0
 2015 145    43    0.02    0.54    0.00     225    9.19    70.6   0.089   0.071   9.105   0.034     1.7    39.5     0.4    5165    34.1    2123    0.40    2.12   33.68    0.69    22.9     8.5     0.0     0.0     2.7     0.0     0.0     0.0     0.0   1497.     46.     52.     43.     58.    148.    133.     91.     55.     1.8     0.1     0.1     0.0     0.1     0.1     0.1     0.1     0.1    22.6     8.4     0.0     0.0     2.6     0.0     0.0     0.0     0.0     0.5     0.0     0.0     0.0     0.0     0.0     0.0     0.0     0.0
 2015 146    44    0.02    0.60    0.01     230    9.19    74.3   0.089   0.074   9.105   0.035     2.6    59.8     0.6    5258     0.0    3656    0.00    3.66    0.00    1.28     0.0     0.0     0.0     0.0     0.0     0.0     0.0     0.0     0.0   2837.    147.     63.     51.    155.    137.    124.     87.     55.     2.8     0.1     0.1     0.1     0.2     0.1     0.1     0.1     0.1     0.0     0.0     0.0     0.0     0.0     0.0     0.0     0.0     0.0     1.0     0.0     0.0     0.0     0.0     0.0     0.0     0.0     0.0
 2015 147    45    0.02    0.60    0.01     236    9.31    75.1   0.090   0.075   9.216   0.036     0.1     2.9     0.0    5180   111.4     825    0.97    0.83  110.39    0.29     0.0     0.0    54.3    57.0     0.0     0.0     0.0     0.0     0.0    505.     25.     31.     25.     24.     34.     42.     83.     56.     0.5     0.0     0.5     0.5     0.0     0.0     0.0     0.1     0.1     0.0     0.0    53.9    56.5     0.0     0.0     0.0     0.0     0.0     0.1     0.0     0.1     0.1     0.0     0.0     0.0     0.0     0.0
 2015 148    46    0.02    0.62    0.01     241    9.37    76.2   0.091   0.076   9.277   0.036     0.7    16.4     0.2    5439    62.4    1093    0.61    1.09   61.81    0.33     0.0     0.0    29.2    33.3     0.0     0.0     0.0     0.0     0.0    707.     40.     47.     39.     37.     42.     46.     80.     56.     0.7     0.0     0.3     0.4     0.0     0.0     0.0     0.1     0.1     0.0     0.0    28.9    32.9     0.0     0.0     0.0     0.0     0.0     0.1     0.0     0.1     0.1     0.0     0.0     0.0     0.0     0.0
 2015 149    47    0.03    0.66    0.01     247    9.40    77.4   0.091   0.077   9.307   0.036     1.6    37.0     0.4    5424    30.0    1218    0.32    1.22   29.66    0.39     0.0     0.0    12.6    17.4     0.0     0.0     0.0     0.0     0.0    720.     50.     57.     47.     45.     46.    120.     75.     55.     0.7     0.1     0.2     0.2     0.0     0.0     0.1     0.1     0.1     0.0     0.0    12.4    17.2     0.0     0.0     0.0     0.0     0.0     0.2     0.0     0.0     0.0     0.0     0.0     0.0     0.0     0.0
 2015 150    48    0.03    0.71    0.01     252    9.41    79.3   0.091   0.079   9.317   0.037     2.6    57.9     0.6    5325     9.8    1904    0.11    1.90    9.65    0.67     0.0     0.0     2.5     7.3     0.0     0.0     0.0     0.0     0.0   1305.    154.     64.     52.     50.     48.    107.     70.     54.     1.3     0.2     0.1     0.1     0.0     0.0     0.1     0.1     0.1     0.0     0.0     2.4     7.2     0.0     0.0     0.0     0.0     0.0     0.5     0.0     0.0     0.0     0.0     0.0     0.0     0.0     0.0
 2015 151    49    0.03    0.77    0.01     257    9.41    81.0   0.091   0.081   9.322   0.038     2.5    56.8     0.6    5283     5.7    1700    0.06    1.70    5.60    0.58     0.0     0.0     0.0     0.0     5.0     0.7     0.0     0.0     0.0    948.    139.    149.    146.     54.     50.     97.     66.     53.     0.9     0.1     0.1     0.1     0.1     0.1     0.1     0.1     0.1     0.0     0.0     0.0     0.0     4.9     0.7     0.0     0.0     0.0     0.3     0.0     0.0     0.0     0.0     0.0     0.0     0.0     0.0
 2015 152    50    0.03    0.83    0.01     262    9.41    82.6   0.091   0.083   9.322   0.038     2.5    55.9     0.6    5323     0.0    1585    0.00    1.59    0.00    0.52     0.0     0.0     0.0     0.0     0.0     0.0     0.0     0.0     0.0    699.    129.    137.    133.    147.    132.     90.     64.     53.     0.7     0.1     0.1     0.1     0.1     0.1     0.1     0.1     0.1     0.0     0.0     0.0     0.0     0.0     0.0     0.0     0.0     0.0     0.3     0.0     0.0     0.0     0.0     0.0     0.0     0.0     0.0
 2015 153    51    0.03    0.83    0.01     268    9.41    83.4   0.091   0.083   9.322   0.038     0.1     2.0     0.0    5226     0.0     759    0.00    0.76    0.00    0.20     0.0     0.0     0.0     0.0     0.0     0.0     0.0     0.0     0.0    116.     21.     51.    121.    132.    119.     84.     62.     53.     0.1     0.0     0.1     0.1     0.1     0.1     0.1     0.1     0.1     0.0     0.0     0.0     0.0     0.0     0.0     0.0     0.0     0.0     0.0     0.0     0.0     0.0     0.0     0.0     0.0     0.0     0.0
 2015 154    52    0.03    0.84    0.01     273    9.41    84.2   0.091   0.084   9.322   0.039     0.7    15.4     0.2    5394     0.0     813    0.00    0.81    0.00    0.22     0.0     0.0     0.0     0.0     0.0     0.0     0.0     0.0     0.0    178.     36.     58.    113.    121.    111.     81.     62.     53.     0.2     0.0     0.1     0.1     0.1     0.1     0.1     0.1     0.1     0.0     0.0     0.0     0.0     0.0     0.0     0.0     0.0     0.0     0.0     0.0     0.0     0.0     0.0     0.0     0.0     0.0     0.0
 2015 155    53    0.04    0.88    0.01     279    9.41    85.1   0.091   0.085   9.322   0.039     1.7    38.6     0.4    5452     0.0     892    0.00    0.89    0.00    0.26     0.0     0.0     0.0     0.0     0.0     0.0     0.0     0.0     0.0    194.     47.    137.    106.    112.    103.     77.     61.     54.     0.2     0.0     0.1     0.1     0.1     0.1     0.1     0.1     0.1     0.0     0.0     0.0     0.0     0.0     0.0     0.0     0.0     0.0     0.1     0.0     0.0     0.0     0.0     0.0     0.0     0.0     0.0
 2015 156    54    0.04    0.94    0.01     284    9.41    86.1   0.091   0.086   9.322   0.039     2.3    54.9     0.6    5403     0.0    1084    0.00    1.08    0.00    0.34     0.0     0.0     0.0     0.0     0.0     0.0     0.0     0.0     0.0    340.    142.    125.     98.    101.     94.     73.     59.     53.     0.3     0.1     0.1     0.1     0.1     0.1     0.1     0.1     0.1     0.0     0.0     0.0     0.0     0.0     0.0     0.0     0.0     0.0     0.1     0.0     0.0     0.0     0.0     0.0     0.0     0.0     0.0
 2015 157    55    0.04    0.94    0.01     289    9.41    86.6   0.091   0.087   9.322   0.039     0.1     2.5     0.0    5200     0.0     486    0.00    0.49    0.00    0.13     0.0     0.0     0.0     0.0     0.0     0.0     0.0     0.0     0.0     58.     23.     23.     31.     92.     85.     67.     56.     51.     0.1     0.0     0.0     0.0     0.1     0.1     0.1     0.1     0.1     0.0     0.0     0.0     0.0     0.0     0.0     0.0     0.0     0.0     0.0     0.0     0.0     0.0     0.0     0.0     0.0     0.0     0.0
 2015 158    56    0.04    0.96    0.01     294    9.41    87.1   0.091   0.087   9.322   0.039     0.6    15.5     0.2    5256     0.0     521    0.00    0.52    0.00    0.14     0.0     0.0     0.0     0.0     0.0     0.0     0.0     0.0     0.0     81.     36.     36.     35.     85.     78.     64.     55.     51.     0.1     0.0     0.0     0.0     0.1     0.1     0.1     0.1     0.1     0.0     0.0     0.0     0.0     0.0     0.0     0.0     0.0     0.0     0.0     0.0     0.0     0.0     0.0     0.0     0.0     0.0     0.0
 2015 159    57    0.04    0.99    0.01     300    9.41    87.7   0.091   0.088   9.322   0.040     1.5    36.7     0.4    5217     0.0     586    0.00    0.59    0.00    0.17     0.0     0.0     0.0     0.0     0.0     0.0     0.0     0.0     0.0     84.     45.     46.     94.     80.     73.     61.     54.     50.     0.1     0.0     0.0     0.1     0.1     0.1     0.1     0.1     0.1     0.0     0.0     0.0     0.0     0.0     0.0     0.0     0.0     0.0     0.0     0.0     0.0     0.0     0.0     0.0     0.0     0.0     0.0
 2015 160    58    0.04    1.05    0.01     305    9.41    88.5   0.091   0.088   9.322   0.040     2.2    54.1     0.5    5214     0.0     735    0.00    0.74    0.00    0.22     0.0     0.0     0.0     0.0     0.0     0.0     0.0     0.0     0.0    147.    140.     54.     88.     75.     70.     59.     53.     50.     0.1     0.1     0.1     0.1     0.1     0.1     0.1     0.1     0.1     0.0     0.0     0.0     0.0     0.0     0.0     0.0     0.0     0.0     0.1     0.0     0.0     0.0     0.0     0.0     0.0     0.0     0.0
 2015 161    59    0.04    1.05    0.01     310    9.45    88.8   0.091   0.089   9.358   0.040     0.1     2.5     0.0    5107    36.3     298    0.32    0.30   36.00    0.12     0.0     0.0    36.3     0.0     0.0     0.0     0.0     0.0     0.0     27.     23.     26.     14.     21.     25.     58.     53.     50.     0.0     0.0     0.3     0.0     0.0     0.0     0.1     0.1     0.1     0.0     0.0    36.0     0.0     0.0     0.0     0.0     0.0     0.0     0.0     0.0     0.1     0.0     0.0     0.0     0.0     0.0     0.0
 2015 162    60    0.04    1.06    0.01     315    9.47    89.1   0.092   0.089   9.379   0.040     0.5    12.6     0.1    5226    20.5     347    0.20    0.35   20.34    0.12     0.0     0.0    20.5     0.0     0.0     0.0     0.0     0.0     0.0     39.     35.     39.     22.     25.     27.     57.     52.     50.     0.0     0.0     0.2     0.0     0.0     0.0     0.1     0.1     0.1     0.0     0.0    20.3     0.0     0.0     0.0     0.0     0.0     0.0     0.0     0.0     0.0     0.0     0.0     0.0     0.0     0.0     0.0
 2015 163    61    0.04    1.09    0.01     320    9.48    89.6   0.092   0.090   9.388   0.040     1.2    31.4     0.3    5240     9.1     437    0.10    0.44    8.96    0.14     0.0     0.0     9.1     0.0     0.0     0.0     0.0     0.0     0.0     49.     46.     51.     30.     29.     74.     56.     52.     50.     0.0     0.0     0.2     0.0     0.0     0.1     0.1     0.1     0.1     0.0     0.0     9.0     0.0     0.0     0.0     0.0     0.0     0.0     0.0     0.0     0.0     0.0     0.0     0.0     0.0     0.0     0.0
 2015 164    62    0.04    1.10    0.01     325    9.51    89.8   0.092   0.090   9.421   0.040     0.1     2.3     0.0    5033    33.3     245    0.29    0.25   33.02    0.10     0.0     0.0    33.3     0.0     0.0     0.0     0.0     0.0     0.0     23.     24.     27.     17.     14.     19.     20.     52.     50.     0.0     0.0     0.3     0.0     0.0     0.0     0.0     0.1     0.1     0.0     0.0    33.0     0.0     0.0     0.0     0.0     0.0     0.0     0.0     0.0     0.0     0.0     0.0     0.0     0.0     0.0     0.0
 2015 165    63    0.04    1.11    0.01     331    9.62    90.1   0.093   0.090   9.522   0.041     0.5    14.0     0.1    5259   102.6     315    0.99    0.31  101.58    0.24    12.9    12.8    17.9    24.0    34.9     0.0     0.0     0.0     0.0     35.     39.     43.     27.     22.     24.     23.     52.     50.     0.2     0.2     0.2     0.3     0.3     0.0     0.0     0.1     0.1    12.8    12.6    17.7    23.8    34.6     0.0     0.0     0.0     0.0     0.0     0.0     0.0     0.0     0.1     0.0     0.0     0.0     0.0
 2015 166    64    0.05    1.14    0.01     336    9.66    90.5   0.093   0.091   9.571   0.041     1.2    33.2     0.3    5274    49.1     402    0.51    0.40   48.58    0.21     5.1     3.9     7.9    12.4    19.8     0.0     0.0     0.0     0.0     41.     48.     54.     35.     29.     28.     65.     52.     51.     0.1     0.1     0.1     0.2     0.2     0.0     0.1     0.1     0.1     5.0     3.8     7.8    12.2    19.6     0.0     0.0     0.0     0.0     0.0     0.0     0.0     0.0     0.0     0.0     0.0     0.0     0.0
 2015 167    65    0.05    1.20    0.01     341    9.68    91.1   0.094   0.091   9.588   0.041     2.0    54.3     0.5    5347    17.0     584    0.18    0.58   16.82    0.21     0.0     0.0     1.7     5.0    10.2     0.0     0.0     0.0     0.0     90.    153.     64.     41.     35.     32.     64.     53.     52.     0.1     0.2     0.1     0.1     0.1     0.0     0.1     0.1     0.1     0.0     0.0     1.7     5.0    10.1     0.0     0.0     0.0     0.0     0.0     0.0     0.0     0.0     0.0     0.0     0.0     0.0     0.0
 2015 168    66    0.05    1.20    0.01     347    9.70    91.5   0.094   0.091   9.605   0.041     0.1     2.1     0.0    5312    18.1     386    0.20    0.39   17.86    0.15     0.0     0.0     4.2     3.6     6.7     3.6     0.0     0.0     0.0     16.     27.     61.     43.     38.     34.     62.     53.     52.     0.0     0.0     0.1     0.1     0.1     0.1     0.1     0.1     0.1     0.0     0.0     4.2     3.5     6.6     3.5     0.0     0.0     0.0     0.0     0.0     0.0     0.0     0.0     0.0     0.0     0.0     0.0
 2015 169    67    0.05    1.21    0.01     352    9.70    91.9   0.094   0.092   9.609   0.041     0.4    12.2     0.1    5383     3.1     418    0.04    0.42    3.05    0.13     0.0     0.0     0.9     0.2     1.9     0.2     0.0     0.0     0.0     24.     40.     65.     47.     41.     36.     61.     53.     52.     0.0     0.0     0.1     0.0     0.1     0.0     0.1     0.1     0.1     0.0     0.0     0.8     0.2     1.8     0.2     0.0     0.0     0.0     0.0     0.0     0.0     0.0     0.0     0.0     0.0     0.0     0.0
 2015 170    68    0.05    1.24    0.01     357    9.70    92.6   0.094   0.093   9.609   0.041     1.0    29.7     0.2    5388     0.0     722    0.00    0.72    0.00    0.21     0.0     0.0     0.0     0.0     0.0     0.0     0.0     0.0     0.0     29.     50.    151.    123.    111.     95.     59.     52.     52.     0.0     0.0     0.2     0.1     0.1     0.1     0.1     0.1     0.1     0.0     0.0     0.0     0.0     0.0     0.0     0.0     0.0     0.0     0.0     0.0     0.0     0.0     0.0     0.0     0.0     0.0     0.0
 2015 171    69    0.05    1.29    0.01     363    9.70    93.4   0.094   0.093   9.609   0.042     1.7    48.2     0.4    5323     0.0     776    0.00    0.78    0.00    0.23     0.0     0.0     0.0     0.0     0.0     0.0     0.0     0.0     0.0     29.    154.    136.    110.    100.     87.     57.     52.     51.     0.0     0.2     0.1     0.1     0.1     0.1     0.1     0.1     0.1     0.0     0.0     0.0     0.0     0.0     0.0     0.0     0.0     0.0     0.0     0.0     0.0     0.0     0.0     0.0     0.0     0.0     0.0
 2015 172    70    0.05    1.34    0.01     368    9.70    94.1   0.094   0.094   9.609   0.042     1.8    54.5     0.4    5183     0.0     723    0.00    0.72    0.00    0.21     0.0     0.0     0.0     0.0     0.0     0.0     0.0     0.0     0.0     51.    134.    120.     98.     89.     78.     54.     50.     49.     0.1     0.1     0.1     0.1     0.1     0.1     0.1     0.0     0.0     0.0     0.0     0.0     0.0     0.0     0.0     0.0     0.0     0.0     0.0     0.0     0.0     0.0     0.0     0.0     0.0     0.0     0.0
 2015 173    71    0.05    1.35    0.01     373    9.70    94.6   0.094   0.095   9.609   0.042     0.1     1.6     0.0    4958     0.0     527    0.00    0.53    0.00    0.15     0.0     0.0     0.0     0.0     0.0     0.0     0.0     0.0     0.0      8.     29.    106.     87.     80.     71.     51.     48.     47.     0.0     0.0     0.1     0.1     0.1     0.1     0.1     0.0     0.0     0.0     0.0     0.0     0.0     0.0     0.0     0.0     0.0     0.0     0.0     0.0     0.0     0.0     0.0     0.0     0.0     0.0     0.0
 2015 174    72    0.05    1.36    0.01     378    9.70    95.2   0.094   0.095   9.609   0.042     0.3    10.0     0.1    4915     0.0     503    0.00    0.50    0.00    0.15     0.0     0.0     0.0     0.0     0.0     0.0     0.0     0.0     0.0     11.     35.     97.     79.     74.     65.     49.     46.     46.     0.0     0.0     0.1     0.1     0.1     0.1     0.0     0.0     0.0     0.0     0.0     0.0     0.0     0.0     0.0     0.0     0.0     0.0     0.0     0.0     0.0     0.0     0.0     0.0     0.0     0.0     0.0
 2015 175    73    0.05    1.38    0.01     383    9.70    95.6   0.094   0.096   9.609   0.042     0.8    23.9     0.2    4814     0.0     483    0.00    0.48    0.00    0.14     0.0     0.0     0.0     0.0     0.0     0.0     0.0     0.0     0.0     12.     40.     89.     73.     69.     61.     48.     45.     45.     0.0     0.0     0.1     0.1     0.1     0.1     0.0     0.0     0.0     0.0     0.0     0.0     0.0     0.0     0.0     0.0     0.0     0.0     0.0     0.0     0.0     0.0     0.0     0.0     0.0     0.0     0.0

*DSSAT Cropping System Model Ver. 4.7.5.007 -  JAN 21, 2026 10:11:01
!              |---------------------------------- Cumulative ---------------------------------|---------------------------------- Daily --------------------------------------|
!               N2Oemit  N2emit  NOemit     CO2   Denit  Nitrif   N2O-denit+nit      N2      NO N2Oemit  N2emit  NOemit     CO2   Denit  Nitrif   N2O-denit+nit      N2      NO   Denitrification (g[N]/ha) by soil depth (cm):                           Nitrification (g[N]/ha) by soil depth (cm):                             N2O flux (g[N]/ha) by soil depth (cm):                                  N2 flux (g[N]/ha) by soil depth (cm):                                   NO flux (g[N]/ha) by soil depth (cm):
!                 kg/ha   kg/ha   kg/ha   kg/ha   kg/ha   kg/ha   kg/ha   kg/ha   kg/ha   kg/ha    g/ha    g/ha    g/ha    g/ha    g/ha    g/ha    g/ha    g/ha    g/ha    g/ha    0-10   10-20   20-30   30-40   40-50   50-60   60-70   70-80   80-90    0-10   10-20   20-30   30-40   40-50   50-60   60-70   70-80   80-90    0-10   10-20   20-30   30-40   40-50   50-60   60-70   70-80   80-90    0-10   10-20   20-30   30-40   40-50   50-60   60-70   70-80   80-90    0-10   10-20   20-30   30-40   40-50   50-60   60-70   70-80   80-90
@YEAR DOY   DAS   N2OEC    N2EC    NOEC   CO2TC    NDNC    NITC   N2ODC   N2ONC   N2FLC   NOFLC   N2OED    N2ED    NOED   CO2TD    NDND   NITRD   N2ODD   N2OND   N2FLD   NOFLD   NDN1D   NDN2D   NDN3D   NDN4D   NDN5D   NDN6D   NDN7D   NDN8D   NDN9D   NIT1D   NIT2D   NIT3D   NIT4D   NIT5D   NIT6D   NIT7D   NIT8D   NIT9D   N2O1D   N2O2D   N2O3D   N2O4D   N2O5D   N2O6D   N2O7D   N2O8D   N2O9D   N2F1D   N2F2D   N2F3D   N2F4D   N2F5D   N2F6D   N2F7D   N2F8D   N2F9D   NOF1D   NOF2D   NOF3D   NOF4D   NOF5D   NOF6D   NOF7D   NOF8D   NOF9D   
 2015 126     1    0.00    0.00    0.00       6    0.00     1.8   0.000   0.002   0.000   0.002     0.0     0.0     0.0    5885     0.0    1774    0.00    1.77    0.00    2.00     0.0     0.0     0.0     0.0     0.0     0.0     0.0     0.0     0.0    195.    207.    202.    198.    197.    195.    194.    193.    192.     0.2     0.2     0.2     0.2     0.2     0.2     0.2     0.2     0.2     0.0     0.0     0.0     0.0     0.0     0.0     0.0     0.0     0.0     0.3     0.2     0.2     0.2     0.2     0.2     0.2     0.2     0.2
 2015 127     2    0.00    0.00    0.00      11    0.00     2.4   0.000   0.003   0.000   0.002     0.0     0.0     0.0    5230     0.0     578    0.00    0.58    0.00    0.36     0.0     0.0     0.0     0.0     0.0     0.0     0.0     0.0     0.0    169.     27.     30.     27.     27.     27.     50.     60.    161.     0.2     0.0     0.0     0.0     0.0     0.0     0.1     0.1     0.2     0.0     0.0     0.0     0.0     0.0     0.0     0.0     0.0     0.0     0.1     0.0     0.0     0.0     0.0     0.0     0.0     0.0     0.1
 2015 128     3    0.00    0.00    0.00      17    0.00     3.4   0.000   0.004   0.000   0.003     0.0     0.0     0.0    5425     0.0    1092    0.00    1.09    0.00    0.45     0.0     0.0     0.0     0.0     0.0     0.0     0.0     0.0     0.0    788.     31.     34.     29.     29.     29.     44.     55.     53.     0.8     0.0     0.0     0.0     0.0     0.0     0.0     0.1     0.1     0.0     0.0     0.0     0.0     0.0     0.0     0.0     0.0     0.0     0.3     0.0     0.0     0.0     0.0     0.0     0.0     0.0     0.0
 2015 129     4    0.00    0.00    0.00      22    0.00     5.0   0.000   0.006   0.000   0.004     0.0     0.0     0.0    5542     0.0    1576    0.00    1.58    0.00    0.64     0.0     0.0     0.0     0.0     0.0     0.0     0.0     0.0     0.0   1103.     49.     49.     42.     43.     42.     52.     58.    137.     1.1     0.0     0.0     0.0     0.0     0.0     0.1     0.1     0.1     0.0     0.0     0.0     0.0     0.0     0.0     0.0     0.0     0.0     0.4     0.0     0.0     0.0     0.0     0.0     0.0     0.0     0.1
 2015 130     5    0.00    0.00    0.00      27    0.00     6.8   0.000   0.007   0.000   0.004     0.1     0.0     0.0    5395     0.0    1802    0.00    1.80    0.00    0.72     0.0     0.0     0.0     0.0     0.0     0.0     0.0     0.0     0.0   1211.     61.     59.     50.     50.     50.     55.    147.    119.     1.2     0.1     0.1     0.1     0.1     0.1     0.1     0.1     0.1     0.0     0.0     0.0     0.0     0.0     0.0     0.0     0.0     0.0     0.5     0.0     0.0     0.0     0.0     0.0     0.0     0.1     0.1
 2015 131     6    0.00    0.00    0.00      33    0.44     7.8   0.006   0.008   0.431   0.005     0.0     0.1     0.0    5059   436.5     956    5.59    0.96  430.89    1.09    83.8    66.8    74.6    72.6    73.6    50.3    14.8     0.0     0.0    518.     33.     30.     27.     26.     36.     50.    129.    106.     1.6     0.8     1.0     0.9     0.9     0.7     0.3     0.1     0.1    82.8    66.0    73.7    71.7    72.7    49.6    14.5     0.0     0.0     0.3     0.1     0.1     0.1     0.1     0.1     0.1     0.0     0.0
 2015 132     7    0.00    0.00    0.00      37    0.93     8.4   0.010   0.009   0.915   0.006     0.0     0.2     0.0    4645   489.0     659    4.87    0.66  484.10    0.82    63.6    59.4    69.1    71.2    74.6    75.4    75.7     0.0     0.0    478.     30.     28.     23.     23.     23.     22.     17.     14.     1.1     0.6     0.7     0.7     0.8     0.8     0.8     0.0     0.0    62.9    58.8    68.4    70.5    73.8    74.7    74.9     0.0     0.0     0.2     0.1     0.1     0.1     0.1     0.1     0.1     0.0     0.0
 2015 133     8    0.00    0.00    0.00      42    1.22     9.4   0.013   0.010   1.206   0.007     0.1     1.5     0.0    4894   293.5     938    2.74    0.94  290.75    0.61    41.6    34.5    40.9    42.0    44.2    45.0    45.3     0.0     0.0    672.     43.     41.     34.     34.     34.     32.     26.     22.     1.1     0.4     0.4     0.4     0.4     0.4     0.4     0.0     0.0    41.2    34.2    40.5    41.6    43.8    44.6    44.8     0.0     0.0     0.2     0.1     0.1     0.1     0.1     0.1     0.1     0.0     0.0
 2015 134     9    0.00    0.01    0.00      47    1.46    10.4   0.016   0.011   1.448   0.007     0.1     3.5     0.0    4718   244.8    1015    2.36    1.02  242.47    0.61    30.7    29.9    32.3    36.5    38.0    38.6    38.8     0.0     0.0    739.     44.     44.     35.     35.     35.     33.     27.     23.     1.1     0.3     0.4     0.4     0.4     0.4     0.4     0.0     0.0    30.3    29.6    32.0    36.2    37.7    38.2    38.5     0.0     0.0     0.2     0.1     0.1     0.1     0.1     0.1     0.1     0.0     0.0
 2015 135    10    0.00    0.01    0.00      51    1.60    11.6   0.017   0.012   1.580   0.008     0.3     6.7     0.1    4697   133.0    1162    1.39    1.16  131.64    0.58    18.9    15.0    17.5    19.6    20.4    20.7    20.9     0.0     0.0    820.     54.     53.     44.     44.     43.     41.     34.     29.     1.0     0.2     0.2     0.2     0.3     0.3     0.3     0.0     0.0    18.6    14.9    17.3    19.4    20.2    20.5    20.7     0.0     0.0     0.3     0.0     0.1     0.0     0.1     0.1     0.1     0.0     0.0
 2015 136    11    0.00    0.01    0.00      56    1.99    12.1   0.021   0.013   1.974   0.009     0.0     0.4     0.0    4358   397.8     572    3.57    0.57  394.27    0.66    65.0    49.5    56.4    59.0    63.0    44.9    24.2    18.7    17.2    337.     28.     26.     23.     23.     31.     39.     34.     30.     0.9     0.4     0.5     0.5     0.6     0.4     0.3     0.2     0.3    64.5    49.1    55.9    58.5    62.5    44.4    23.9    18.5    17.0     0.1     0.1     0.1     0.1     0.1     0.1     0.1     0.0     0.1
 2015 137    12    0.00    0.02    0.00      61    2.24    13.0   0.023   0.013   2.214   0.009     0.1     2.8     0.0    4693   242.0     852    2.35    0.85  239.63    0.58    45.3    30.1    35.0    36.3    38.8    26.8    12.9     9.0     7.9    536.     43.     41.     36.     35.     41.     45.     39.     35.     1.0     0.3     0.4     0.4     0.4     0.3     0.2     0.1     0.1    44.8    29.8    34.7    35.9    38.4    26.5    12.8     8.9     7.8     0.2     0.1     0.1     0.1     0.1     0.1     0.0     0.0     0.0
 2015 138    13    0.00    0.02    0.00      65    2.36    14.1   0.024   0.015   2.337   0.010     0.2     7.4     0.1    4874   124.4    1090    1.31    1.09  123.10    0.52    29.2    15.2    19.8    20.3    21.7    13.4     3.8     1.0     0.1    698.     57.     55.     47.     47.     50.     52.     45.     40.     1.0     0.2     0.3     0.3     0.3     0.2     0.1     0.1     0.0    28.8    15.1    19.6    20.1    21.5    13.3     3.8     1.0     0.1     0.2     0.0     0.1     0.1     0.1     0.0     0.0     0.0     0.0
 2015 139    14    0.00    0.04    0.00      70    2.41    15.5   0.025   0.016   2.389   0.010     0.4    13.0     0.1    5003    53.1    1464    0.60    1.46   52.54    0.56    16.0     4.9     9.3     9.2     9.8     4.0     0.0     0.0     0.0    794.     66.     65.     55.     55.     57.    143.    121.    107.     1.0     0.1     0.2     0.2     0.2     0.1     0.1     0.1     0.1    15.8     4.8     9.2     9.1     9.7     4.0     0.0     0.0     0.0     0.3     0.0     0.0     0.0     0.0     0.0     0.0     0.0     0.0
 2015 140    15    0.00    0.04    0.00      75    2.59    17.6   0.026   0.018   2.564   0.011     0.0     0.7     0.0    4947   176.4    2041    1.60    2.04  174.80    0.64    89.4    55.9    15.7     8.6     5.9     0.9     0.0     0.0     0.0   1430.     33.     61.     56.     58.     59.    132.    112.    100.     2.2     0.5     0.2     0.1     0.1     0.1     0.1     0.1     0.1    88.7    55.4    15.5     8.5     5.9     0.9     0.0     0.0     0.0     0.3     0.1     0.1     0.0     0.0     0.0     0.0     0.0     0.0
 2015 141    16    0.00    0.04    0.00      80    2.75    20.3   0.028   0.021   2.724   0.012     0.1     3.2     0.0    5093   160.9    2694    1.54    2.69  159.36    0.78    76.8    51.6    19.6     9.5     3.4     0.0     0.0     0.0     0.0   2009.     38.     58.     56.     59.    154.    121.    105.     94.     2.8     0.5     0.3     0.2     0.1     0.2     0.1     0.1     0.1    76.0    51.1    19.4     9.4     3.4     0.0     0.0     0.0     0.0     0.4     0.1     0.1     0.0     0.0     0.0     0.0     0.0     0.0
 2015 142    17    0.00    0.05    0.00      86    2.84    23.8   0.029   0.024   2.812   0.013     0.4    10.8     0.1    5230    89.2    3492    0.95    3.49   88.29    0.99    52.5    26.8     8.5     1.4     0.0     0.0     0.0     0.0     0.0   2697.     57.     68.     62.    162.    143.    114.     99.     90.     3.3     0.3     0.2     0.1     0.2     0.1     0.1     0.1     0.1    51.9    26.5     8.4     1.4     0.0     0.0     0.0     0.0     0.0     0.7     0.1     0.0     0.0     0.0     0.0     0.0     0.0     0.0
 2015 143    18    0.00    0.05    0.00      91    3.15    25.6   0.032   0.026   3.117   0.013     0.0     1.1     0.0    5003   307.9    1799    2.66    1.80  305.27    0.71   118.8    61.8    62.6    64.8     0.0     0.0     0.0     0.0     0.0   1351.     36.     31.     27.     28.     46.    104.     91.     84.     2.4     0.6     0.6     0.6     0.0     0.0     0.1     0.1     0.1   117.8    61.3    62.0    64.2     0.0     0.0     0.0     0.0     0.0     0.4     0.1     0.1     0.1     0.0     0.0     0.0     0.0     0.0
 2015 144    19    0.00    0.06    0.00      96    3.34    28.1   0.033   0.029   3.305   0.014     0.2     7.5     0.1    5203   189.4    2532    1.85    2.53  187.56    0.80    80.6    34.2    36.7    37.9     0.0     0.0     0.0     0.0     0.0   2040.     54.     48.     41.     40.     49.     95.     85.     78.     2.9     0.4     0.4     0.4     0.0     0.0     0.1     0.1     0.1    79.8    33.9    36.4    37.5     0.0     0.0     0.0     0.0     0.0     0.5     0.1     0.1     0.1     0.0     0.0     0.0     0.0     0.0
 2015 145    20    0.00    0.08    0.00     101    3.44    31.2   0.034   0.032   3.403   0.015     0.7    20.1     0.1    5239    99.9    3114    1.09    3.11   98.76    0.99    47.4    13.8    18.5    20.1     0.0     0.0     0.0     0.0     0.0   2510.     68.     62.     52.     49.    130.     89.     80.     75.     3.1     0.2     0.3     0.3     0.0     0.1     0.1     0.1     0.1    46.8    13.7    18.3    19.9     0.0     0.0     0.0     0.0     0.0     0.7     0.0     0.1     0.1     0.0     0.0     0.0     0.0     0.0
 2015 146    21    0.00    0.11    0.00     106    3.47    34.6   0.035   0.035   3.434   0.016     1.3    35.3     0.3    5344    31.1    3430    0.38    3.43   30.70    1.18    15.9     0.3     6.5     8.4     0.0     0.0     0.0     0.0     0.0   2806.     78.     72.     61.     56.    121.     86.     78.     73.     3.0     0.1     0.1     0.2     0.1     0.1     0.1     0.1     0.1    15.7     0.3     6.5     8.3     0.0     0.0     0.0     0.0     0.0     1.0     0.0     0.0     0.0     0.0     0.0     0.0     0.0     0.0
 2015 147    22    0.01    0.16    0.00     112    3.47    41.2   0.035   0.042   3.434   0.019     1.8    41.8     0.4    5433     0.1    6534    0.00    6.53    0.10    2.33     0.0     0.0     0.0     0.1     0.0     0.0     0.0     0.0     0.0   5569.    225.    176.     67.    157.    113.     82.     75.     71.     5.6     0.2     0.2     0.1     0.2     0.1     0.1     0.1     0.1     0.0     0.0     0.0     0.1     0.0     0.0     0.0     0.0     0.0     2.1     0.1     0.1     0.0     0.0     0.0     0.0     0.0     0.0
 2015 148    23    0.01    0.16    0.00     117    3.47    42.8   0.035   0.043   3.440   0.019     0.1     1.4     0.0    5406     5.4    1593    0.06    1.59    5.33    0.33     0.0     0.0     0.0     5.4     0.0     0.0     0.0     0.0     0.0    971.     34.     53.     64.    144.    106.     79.     73.     69.     1.0     0.0     0.1     0.1     0.1     0.1     0.1     0.1     0.1     0.0     0.0     0.0     5.3     0.0     0.0     0.0     0.0     0.0     0.1     0.0     0.0     0.0     0.0     0.0     0.0     0.0     0.0
 2015 149    24    0.01    0.17    0.00     123    3.47    44.9   0.035   0.045   3.440   0.020     0.4     8.5     0.1    5519     0.0    2187    0.00    2.19    0.00    0.47     0.0     0.0     0.0     0.0     0.0     0.0     0.0     0.0     0.0   1470.     51.     61.    169.    129.     97.     75.     70.     66.     1.5     0.1     0.1     0.2     0.1     0.1     0.1     0.1     0.1     0.0     0.0     0.0     0.0     0.0     0.0     0.0     0.0     0.0     0.3     0.0     0.0     0.0     0.0     0.0     0.0     0.0     0.0
 2015 150    25    0.01    0.17    0.00     128    3.47    46.3   0.035   0.047   3.440   0.020     0.1     1.5     0.0    5314     0.0    1384    0.00    1.38    0.00    0.27     0.0     0.0     0.0     0.0     0.0     0.0     0.0     0.0     0.0    862.     34.     40.     51.    113.     87.     69.     65.     62.     0.9     0.0     0.0     0.1     0.1     0.1     0.1     0.1     0.1     0.0     0.0     0.0     0.0     0.0     0.0     0.0     0.0     0.0     0.1     0.0     0.0     0.0     0.0     0.0     0.0     0.0     0.0
 2015 151    26    0.01    0.18    0.00     134    3.47    48.2   0.035   0.049   3.440   0.020     0.5     9.6     0.1    5380     0.0    1827    0.00    1.83    0.00    0.39     0.0     0.0     0.0     0.0     0.0     0.0     0.0     0.0     0.0   1299.     51.     52.     55.    102.     81.     66.     62.     60.     1.3     0.1     0.1     0.1     0.1     0.1     0.1     0.1     0.1     0.0     0.0     0.0     0.0     0.0     0.0     0.0     0.0     0.0     0.2     0.0     0.0     0.0     0.0     0.0     0.0     0.0     0.0
 2015 152    27    0.01    0.20    0.00     139    3.55    50.3   0.036   0.051   3.518   0.021     1.2    25.2     0.3    5411    79.4    2181    0.93    2.18   78.49    0.82    57.6    12.9     9.0     0.0     0.0     0.0     0.0     0.0     0.0   1557.     62.     60.    145.     95.     77.     64.     61.     59.     2.3     0.2     0.2     0.1     0.1     0.1     0.1     0.1     0.1    56.9    12.7     8.8     0.0     0.0     0.0     0.0     0.0     0.0     0.6     0.0     0.0     0.0     0.0     0.0     0.0     0.0     0.0
 2015 153    28    0.01    0.20    0.00     144    3.86    51.6   0.039   0.052   3.821   0.022     0.1     2.4     0.0    5345   306.0    1297    2.78    1.30  303.21    0.71   233.4    61.6    11.0     0.0     0.0     0.0     0.0     0.0     0.0    723.     44.     59.    130.     88.     73.     62.     59.     58.     2.8     0.6     0.2     0.1     0.1     0.1     0.1     0.1     0.1   231.3    61.1    10.8     0.0     0.0     0.0     0.0     0.0     0.0     0.4     0.1     0.0     0.0     0.0     0.0     0.0     0.0     0.0
 2015 154    29    0.01    0.22    0.00     150    4.01    53.3   0.040   0.054   3.969   0.022     0.6    16.7     0.1    5483   149.6    1704    1.58    1.70  148.03    0.69   126.6    21.9     1.1     0.0     0.0     0.0     0.0     0.0     0.0   1125.     58.     66.    121.     84.     71.     62.     59.     58.     2.5     0.3     0.1     0.1     0.1     0.1     0.1     0.1     0.1   125.3    21.7     1.1     0.0     0.0     0.0     0.0     0.0     0.0     0.5     0.1     0.0     0.0     0.0     0.0     0.0     0.0     0.0
 2015 155    30    0.01    0.26    0.00     155    4.06    55.5   0.041   0.056   4.015   0.023     1.5    42.2     0.4    5546    46.7    2110    0.58    2.11   46.13    0.76    46.7     0.0     0.0     0.0     0.0     0.0     0.0     0.0     0.0   1333.    183.    155.    111.     80.     69.     61.     59.     58.     1.9     0.2     0.2     0.1     0.1     0.1     0.1     0.1     0.1    46.1     0.0     0.0     0.0     0.0     0.0     0.0     0.0     0.0     0.5     0.0     0.0     0.0     0.0     0.0     0.0     0.0     0.0
 2015 156    31    0.01    0.33    0.00     161    4.06    58.8   0.041   0.059   4.015   0.024     2.4    62.0     0.6    5509     0.0    3337    0.00    3.34    0.00    1.17     0.0     0.0     0.0     0.0     0.0     0.0     0.0     0.0     0.0   2629.    156.    138.    101.     75.     66.     59.     57.     56.     2.6     0.2     0.1     0.1     0.1     0.1     0.1     0.1     0.1     0.0     0.0     0.0     0.0     0.0     0.0     0.0     0.0     0.0     1.0     0.0     0.0     0.0     0.0     0.0     0.0     0.0     0.0
 2015 157    32    0.01    0.33    0.00     166    4.06    59.7   0.041   0.060   4.015   0.025     0.1     2.5     0.0    5296     0.0     902    0.00    0.90    0.00    0.19     0.0     0.0     0.0     0.0     0.0     0.0     0.0     0.0     0.0    446.     23.     47.     90.     69.     61.     56.     55.     54.     0.4     0.0     0.0     0.1     0.1     0.1     0.1     0.1     0.1     0.0     0.0     0.0     0.0     0.0     0.0     0.0     0.0     0.0     0.1     0.0     0.0     0.0     0.0     0.0     0.0     0.0     0.0
 2015 158    33    0.01    0.35    0.00     171    4.06    60.8   0.041   0.061   4.015   0.025     0.7    17.0     0.2    5349     0.0    1127    0.00    1.13    0.00    0.26     0.0     0.0     0.0     0.0     0.0     0.0     0.0     0.0     0.0    668.     38.     52.     83.     65.     59.     55.     54.     53.     0.7     0.0     0.1     0.1     0.1     0.1     0.1     0.1     0.1     0.0     0.0     0.0     0.0     0.0     0.0     0.0     0.0     0.0     0.1     0.0     0.0     0.0     0.0     0.0     0.0     0.0     0.0
 2015 159    34    0.02    0.39    0.00     177    4.06    62.1   0.041   0.063   4.015   0.025     1.6    42.2     0.4    5290     0.0    1283    0.00    1.28    0.00    0.37     0.0     0.0     0.0     0.0     0.0     0.0     0.0     0.0     0.0    761.     48.    121.     77.     62.     57.     53.     53.     52.     0.8     0.0     0.1     0.1     0.1     0.1     0.1     0.1     0.1     0.0     0.0     0.0     0.0     0.0     0.0     0.0     0.0     0.0     0.2     0.0     0.0     0.0     0.0     0.0     0.0     0.0     0.0
 2015 160    35    0.02    0.45    0.00     182    4.06    69.0   0.041   0.069   4.015   0.028     2.6    58.6     0.7    5288     0.0    6891    0.00    6.89    0.00    2.49     0.0     0.0     0.0     0.0     0.0     0.0     0.0     0.0     0.0   6289.    145.    112.     73.     61.     56.     53.     52.     52.     6.3     0.1     0.1     0.1     0.1     0.1     0.1     0.1     0.1     0.0     0.0     0.0     0.0     0.0     0.0     0.0     0.0     0.0     2.3     0.0     0.0     0.0     0.0     0.0     0.0     0.0     0.0
 2015 161    36    0.02    0.45    0.00     187    4.06    70.4   0.041   0.071   4.015   0.028     0.1     2.8     0.0    5213     0.0    1425    0.00    1.42    0.00    0.26     0.0     0.0     0.0     0.0     0.0     0.0     0.0     0.0     0.0   1083.     24.     21.     24.     60.     56.     53.     52.     52.     1.1     0.0     0.0     0.0     0.1     0.1     0.1     0.1     0.1     0.0     0.0     0.0     0.0     0.0     0.0     0.0     0.0     0.0     0.2     0.0     0.0     0.0     0.0     0.0     0.0     0.0     0.0
 2015 162    37    0.02    0.46    0.00     193    4.06    72.2   0.041   0.073   4.015   0.028     0.6    14.0     0.2    5298     0.0    1810    0.00    1.81    0.00    0.37     0.0     0.0     0.0     0.0     0.0     0.0     0.0     0.0     0.0   1441.     42.     33.     27.     58.     55.     52.     52.     51.     1.4     0.0     0.0     0.0     0.1     0.1     0.1     0.1     0.1     0.0     0.0     0.0     0.0     0.0     0.0     0.0     0.0     0.0     0.3     0.0     0.0     0.0     0.0     0.0     0.0     0.0     0.0
 2015 163    38    0.02    0.50    0.00     198    4.06    74.3   0.041   0.075   4.015   0.029     1.6    35.1     0.4    5303     0.0    2053    0.00    2.05    0.00    0.55     0.0     0.0     0.0     0.0     0.0     0.0     0.0     0.0     0.0   1612.     54.     44.     77.     57.     54.     52.     52.     51.     1.6     0.1     0.0     0.1     0.1     0.1     0.1     0.1     0.1     0.0     0.0     0.0     0.0     0.0     0.0     0.0     0.0     0.0     0.4     0.0     0.0     0.0     0.0     0.0     0.0     0.0     0.0
 2015 164    39    0.02    0.50    0.00     203    4.06    75.3   0.041   0.076   4.015   0.029     0.1     2.6     0.0    5172     0.0     991    0.00    0.99    0.00    0.18     0.0     0.0     0.0     0.0     0.0     0.0     0.0     0.0     0.0    693.     29.     24.     18.     20.     53.     52.     51.     51.     0.7     0.0     0.0     0.0     0.0     0.1     0.1     0.1     0.1     0.0     0.0     0.0     0.0     0.0     0.0     0.0     0.0     0.0     0.1     0.0     0.0     0.0     0.0     0.0     0.0     0.0     0.0
 2015 165    40    0.02    0.52    0.01     208    4.26    76.6   0.043   0.077   4.221   0.030     0.7    16.7     0.2    5323   208.0    1305    2.12    1.30  205.90    0.67   109.6    52.7    45.7     0.0     0.0     0.0     0.0     0.0     0.0    966.     44.     39.     24.     23.     53.     52.     52.     51.     2.1     0.5     0.5     0.0     0.0     0.1     0.1     0.1     0.1   108.4    52.2    45.2     0.0     0.0     0.0     0.0     0.0     0.0     0.4     0.1     0.1     0.0     0.0     0.0     0.0     0.0     0.0
 2015 166    41    0.02    0.56    0.01     214    4.34    78.0   0.044   0.079   4.297   0.030     1.8    40.4     0.4    5329    76.4    1448    0.89    1.45   75.51    0.62    42.4    14.3    19.7     0.0     0.0     0.0     0.0     0.0     0.0   1043.     53.     50.     29.     65.     53.     52.     52.     51.     1.6     0.2     0.3     0.0     0.1     0.1     0.1     0.1     0.1    41.9    14.2    19.5     0.0     0.0     0.0     0.0     0.0     0.0     0.4     0.0     0.1     0.0     0.0     0.0     0.0     0.0     0.0
 2015 167    42    0.03    0.62    0.01     219    4.34    80.6   0.044   0.081   4.300   0.031     2.8    61.7     0.7    5417     3.3    2536    0.04    2.54    3.23    0.90     0.0     0.0     3.3     0.0     0.0     0.0     0.0     0.0     0.0   2006.    159.     60.     34.     65.     54.     53.     53.     52.     2.0     0.2     0.1     0.0     0.1     0.1     0.1     0.1     0.1     0.0     0.0     3.2     0.0     0.0     0.0     0.0     0.0     0.0     0.7     0.0     0.0     0.0     0.0     0.0     0.0     0.0     0.0
 2015 168    43    0.03    0.62    0.01     224    4.51    81.1   0.045   0.082   4.464   0.032     0.1     2.5     0.0    5208   165.1     553    1.43    0.55  163.71    0.31     0.0     0.0    89.6    75.6     0.0     0.0     0.0     0.0     0.0    332.     25.     28.     16.     10.     17.     20.     53.     52.     0.3     0.0     0.8     0.7     0.0     0.0     0.0     0.1     0.1     0.0     0.0    88.8    74.9     0.0     0.0     0.0     0.0     0.0     0.0     0.0     0.1     0.1     0.0     0.0     0.0     0.0     0.0
 2015 169    44    0.03    0.64    0.01     230    4.60    81.9   0.046   0.082   4.559   0.032     0.6    13.8     0.2    5432    95.9     766    0.92    0.77   94.96    0.32     0.0     0.0    50.4    45.5     0.0     0.0     0.0     0.0     0.0    459.     39.     43.     25.     17.     21.     58.     52.     52.     0.5     0.0     0.5     0.4     0.0     0.0     0.1     0.1     0.1     0.0     0.0    49.9    45.0     0.0     0.0     0.0     0.0     0.0     0.1     0.0     0.1     0.1     0.0     0.0     0.0     0.0     0.0
 2015 170    45    0.03    0.67    0.01     235    4.65    82.7   0.047   0.083   4.606   0.032     1.5    32.8     0.4    5418    48.2     836    0.51    0.84   47.72    0.32     0.0     0.0    23.8    24.5     0.0     0.0     0.0     0.0     0.0    491.     49.     55.     32.     22.     24.     57.     52.     52.     0.5     0.0     0.3     0.3     0.0     0.0     0.1     0.1     0.1     0.0     0.0    23.5    24.2     0.0     0.0     0.0     0.0     0.0     0.1     0.0     0.1     0.1     0.0     0.0     0.0     0.0     0.0
 2015 171    46    0.03    0.67    0.01     240    4.82    83.2   0.048   0.084   4.767   0.032     0.1     2.6     0.0    5153   162.2     447    1.40    0.45  160.81    0.29     0.0     0.0    86.0    76.2     0.0     0.0     0.0     0.0     0.0    220.     26.     29.     18.     13.     18.     20.     51.     51.     0.2     0.0     0.8     0.7     0.0     0.0     0.0     0.1     0.1     0.0     0.0    85.3    75.5     0.0     0.0     0.0     0.0     0.0     0.0     0.0     0.1     0.1     0.0     0.0     0.0     0.0     0.0
 2015 172    47    0.03    0.69    0.01     246    5.08    83.7   0.051   0.084   5.034   0.033     0.7    15.0     0.2    5213   269.0     555    2.63    0.56  266.36    0.58    61.1    44.7    46.4    44.0    47.9    24.9     0.0     0.0     0.0    287.     37.     42.     27.     20.     22.     22.     49.     49.     0.9     0.5     0.5     0.4     0.5     0.3     0.0     0.0     0.0    60.5    44.3    46.0    43.6    47.4    24.6     0.0     0.0     0.0     0.2     0.1     0.1     0.1     0.1     0.1     0.0     0.0     0.0
 2015 173    48    0.03    0.72    0.01     251    5.21    84.3   0.052   0.085   5.158   0.034     1.5    35.2     0.4    5039   125.5     618    1.34    0.62  124.21    0.45    26.0    15.0    21.3    22.9    27.3    13.0     0.0     0.0     0.0    289.     43.     49.     33.     24.     25.     59.     47.     47.     0.6     0.2     0.3     0.3     0.3     0.2     0.1     0.0     0.0    25.7    14.9    21.1    22.7    27.0    12.9     0.0     0.0     0.0     0.2     0.0     0.1     0.1     0.1     0.0     0.0     0.0     0.0
 2015 174    49    0.03    0.78    0.01     255    5.25    84.9   0.052   0.085   5.198   0.034     2.4    57.5     0.6    4920    40.8     611    0.45    0.61   40.32    0.30     3.6     0.0     6.7    10.4    14.5     5.5     0.0     0.0     0.0    269.     47.     55.     37.     28.     27.     56.     46.     46.     0.3     0.0     0.1     0.1     0.2     0.1     0.1     0.0     0.0     3.5     0.0     6.6    10.3    14.4     5.4     0.0     0.0     0.0     0.1     0.0     0.0     0.0     0.0     0.0     0.0     0.0     0.0
 2015 175    50    0.03    0.78    0.01     260    5.61    85.3   0.056   0.086   5.555   0.034     0.1     2.7     0.0    4652   360.3     315    3.14    0.32  357.16    0.54    67.2    63.5    68.0    66.9    71.4    23.3     0.0     0.0     0.0    102.     23.     25.     18.     14.     23.     20.     45.     45.     0.7     0.6     0.6     0.6     0.6     0.3     0.0     0.0     0.0    66.6    62.9    67.4    66.3    70.8    23.1     0.0     0.0     0.0     0.1     0.1     0.1     0.1     0.1     0.1     0.0     0.0     0.0
 2015 176    51    0.03    0.80    0.01     265    5.81    85.7   0.058   0.086   5.755   0.035     0.6    15.1     0.1    4762   201.2     425    1.95    0.42  199.25    0.44    37.2    30.9    37.5    39.2    43.6    12.8     0.0     0.0     0.0    138.     32.     36.     27.     21.     26.     56.     45.     45.     0.5     0.3     0.4     0.4     0.4     0.2     0.1     0.0     0.0    36.8    30.6    37.1    38.8    43.2    12.7     0.0     0.0     0.0     0.1     0.1     0.1     0.1     0.1     0.0     0.0     0.0     0.0
 2015 177    52    0.03    0.83    0.01     270    5.91    86.2   0.059   0.087   5.847   0.035     1.5    37.4     0.4    4797    93.6     477    0.99    0.48   92.61    0.34    15.8     9.8    17.2    20.5    25.2     5.1     0.0     0.0     0.0    154.     41.     46.     35.     27.     29.     55.     45.     45.     0.3     0.1     0.2     0.2     0.3     0.1     0.1     0.0     0.0    15.6     9.7    17.0    20.3    24.9     5.1     0.0     0.0     0.0     0.1     0.0     0.1     0.0     0.1     0.0     0.0     0.0     0.0
 2015 178    53    0.03    0.84    0.01     274    6.14    86.5   0.061   0.087   6.077   0.036     0.1     2.8     0.0    4708   231.6     352    2.11    0.35  229.54    0.43    53.4    55.3    57.5    30.6    25.1     9.7     0.0     0.0     0.0     70.     21.     27.     31.     28.     29.     54.     46.     46.     0.5     0.5     0.5     0.3     0.3     0.1     0.1     0.0     0.0    53.0    54.8    57.0    30.3    24.9     9.6     0.0     0.0     0.0     0.1     0.1     0.1     0.1     0.1     0.0     0.0     0.0     0.0
 2015 179    54    0.04    0.85    0.01     279    6.26    86.9   0.062   0.087   6.194   0.036     0.6    16.6     0.2    4765   118.2     410    1.20    0.41  117.04    0.33    28.8    26.2    30.6    15.7    13.5     3.4     0.0     0.0     0.0     97.     32.     38.     37.     32.     31.     52.     45.     45.     0.4     0.3     0.3     0.2     0.2     0.1     0.1     0.0     0.0    28.5    26.0    30.3    15.6    13.3     3.4     0.0     0.0     0.0     0.1     0.0     0.1     0.0     0.0     0.0     0.0     0.0     0.0
 2015 180    55    0.04    0.89    0.01     284    6.30    87.4   0.062   0.088   6.241   0.036     1.4    39.1     0.3    4696    47.7     436    0.53    0.44   47.14    0.24    12.6     9.0    13.7     6.6     5.8     0.0     0.0     0.0     0.0    104.     39.     46.     41.     34.     32.     51.     44.     45.     0.3     0.1     0.2     0.1     0.1     0.0     0.1     0.0     0.0    12.4     8.9    13.5     6.5     5.7     0.0     0.0     0.0     0.0     0.1     0.0     0.0     0.0     0.0     0.0     0.0     0.0     0.0
 2015 181    56    0.04    0.96    0.01     289    6.31    87.9   0.062   0.088   6.245   0.036     2.4    67.2     0.6    4708     4.2     586    0.05    0.59    4.11    0.19     0.7     0.0     3.1     0.2     0.2     0.0     0.0     0.0     0.0    102.    125.     53.     44.     37.     85.     50.     45.     45.     0.1     0.1     0.1     0.0     0.0     0.1     0.1     0.0     0.0     0.7     0.0     3.0     0.2     0.2     0.0     0.0     0.0     0.0     0.0     0.0     0.0     0.0     0.0     0.0     0.0     0.0     0.0
 2015 182    57    0.04    0.96    0.01     293    6.51    88.2   0.064   0.089   6.448   0.037     0.1     2.9     0.0    4533   204.8     254    1.76    0.25  203.02    0.32    32.6     0.0    49.2    56.8    66.2     0.0     0.0     0.0     0.0     39.     20.     24.     20.     16.     27.     19.     45.     45.     0.3     0.0     0.5     0.5     0.6     0.0     0.0     0.0     0.0    32.3     0.0    48.8    56.3    65.6     0.0     0.0     0.0     0.0     0.0     0.0     0.1     0.1     0.1     0.0     0.0     0.0     0.0
 2015 183    58    0.04    0.98    0.01     298    6.63    88.6   0.065   0.089   6.566   0.037     0.6    17.1     0.1    4823   119.4     362    1.15    0.36  118.21    0.28    18.4     0.0    27.2    33.2    40.5     0.0     0.0     0.0     0.0     57.     33.     38.     31.     25.     31.     55.     46.     46.     0.2     0.0     0.3     0.3     0.4     0.0     0.1     0.0     0.0    18.2     0.0    26.9    32.9    40.2     0.0     0.0     0.0     0.0     0.0     0.0     0.1     0.1     0.1     0.0     0.0     0.0     0.0
 2015 184    59    0.04    1.02    0.01     303    6.69    89.0   0.066   0.089   6.628   0.037     1.4    39.4     0.3    4952    62.6     414    0.66    0.41   61.97    0.25     8.2     0.0    12.9    17.8    23.7     0.0     0.0     0.0     0.0     63.     43.     49.     41.     33.     34.     55.     48.     48.     0.2     0.0     0.2     0.2     0.3     0.0     0.1     0.0     0.0     8.1     0.0    12.7    17.6    23.5     0.0     0.0     0.0     0.0     0.0     0.0     0.0     0.0     0.1     0.0     0.0     0.0     0.0
 2015 185    60    0.04    1.02    0.01     308    6.80    89.3   0.067   0.090   6.737   0.037     0.1     3.2     0.0    4994   109.4     355    1.04    0.36  108.39    0.26    28.6     0.0    35.1    23.4    22.4     0.0     0.0     0.0     0.0     30.     24.     35.     40.     36.     35.     56.     49.     49.     0.3     0.0     0.4     0.3     0.3     0.0     0.1     0.0     0.0    28.3     0.0    34.7    23.2    22.2     0.0     0.0     0.0     0.0     0.0     0.0     0.1     0.1     0.1     0.0     0.0     0.0     0.0
 2015 186    61    0.04    1.04    0.01     313    6.88    89.7   0.068   0.090   6.808   0.038     0.6    18.6     0.2    5175    71.9     417    0.74    0.42   71.15    0.26    15.6    16.4    17.6    11.1    11.1     0.1     0.0     0.0     0.0     46.     38.     48.     47.     42.     39.     56.     51.     50.     0.2     0.2     0.2     0.2     0.2     0.0     0.1     0.1     0.1    15.4    16.2    17.4    11.0    11.0     0.1     0.0     0.0     0.0     0.0     0.0     0.0     0.0     0.0     0.0     0.0     0.0     0.0
 2015 187    62    0.04    1.08    0.01     318    6.90    90.3   0.068   0.091   6.836   0.038     1.4    40.7     0.3    5225    28.9     518    0.32    0.52   28.59    0.22     7.1     6.0     7.4     4.2     4.3     0.0     0.0     0.0     0.0     54.     46.     58.     52.     46.    103.     56.     51.     51.     0.1     0.1     0.1     0.1     0.1     0.1     0.1     0.1     0.1     7.0     5.9     7.3     4.1     4.2     0.0     0.0     0.0     0.0     0.0     0.0     0.0     0.0     0.0     0.0     0.0     0.0     0.0
 2015 188    63    0.05    1.14    0.01     323    6.91    90.8   0.068   0.091   6.842   0.038     2.0    61.5     0.5    5177     6.1     517    0.07    0.52    6.06    0.17     1.8     0.7     2.0     0.1     1.5     0.0     0.0     0.0     0.0     55.     50.     60.     54.     47.     94.     55.     50.     50.     0.1     0.1     0.1     0.1     0.1     0.1     0.1     0.1     0.1     1.8     0.7     2.0     0.1     1.5     0.0     0.0     0.0     0.0     0.0     0.0     0.0     0.0     0.0     0.0     0.0     0.0     0.0
 2015 189    64    0.05    1.21    0.01     328    6.91    91.5   0.068   0.092   6.843   0.039     2.2    69.6     0.5    4962     0.6     704    0.01    0.70    0.57    0.79     0.0     0.0     0.5     0.0     0.1     0.0     0.0     0.0     0.0    101.    138.     58.    132.     45.     82.     51.     48.     48.     0.1     0.1     0.1     0.1     0.0     0.1     0.1     0.0     0.0     0.0     0.0     0.5     0.0     0.1     0.0     0.0     0.0     0.0     0.1     0.1     0.1     0.1     0.0     0.1     0.1     0.1     0.1
 2015 190    65    0.05    1.26    0.01     333    6.91    92.0   0.068   0.093   6.844   0.039     1.4    42.7     0.3    4586     0.9     542    0.01    0.54    0.85    0.48     0.0     0.0     0.9     0.0     0.0     0.0     0.0     0.0     0.0     35.     39.     52.    108.    106.     70.     46.     43.     43.     0.0     0.0     0.1     0.1     0.1     0.1     0.0     0.0     0.0     0.0     0.0     0.9     0.0     0.0     0.0     0.0     0.0     0.0     0.0     0.0     0.1     0.1     0.1     0.1     0.0     0.0     0.0
 2015 191    66    0.05    1.32    0.01     337    6.91    92.7   0.068   0.093   6.844   0.040     2.0    63.8     0.5    4412     0.0     641    0.00    0.64    0.00    0.47     0.0     0.0     0.0     0.0     0.0     0.0     0.0     0.0     0.0     37.    110.    115.     95.     94.     63.     43.     41.     42.     0.0     0.1     0.1     0.1     0.1     0.1     0.0     0.0     0.0     0.0     0.0     0.0     0.0     0.0     0.0     0.0     0.0     0.0     0.0     0.1     0.1     0.1     0.1     0.0     0.0     0.0     0.0
 2015 192    67    0.05    1.32    0.01     342    6.91    93.1   0.068   0.094   6.844   0.040     0.1     3.1     0.0    4385     0.0     385    0.00    0.39    0.00    0.21     0.0     0.0     0.0     0.0     0.0     0.0     0.0     0.0     0.0     16.     18.     38.     35.     89.     61.     44.     42.     42.     0.0     0.0     0.0     0.0     0.1     0.1     0.0     0.0     0.0     0.0     0.0     0.0     0.0     0.0     0.0     0.0     0.0     0.0     0.0     0.0     0.0     0.0     0.1     0.0     0.0     0.0     0.0
 2015 193    68    0.05    1.34    0.01     346    6.91    93.5   0.068   0.094   6.844   0.040     0.5    17.5     0.1    4551     0.0     472    0.00    0.47    0.00    0.21     0.0     0.0     0.0     0.0     0.0     0.0     0.0     0.0     0.0     23.     30.     46.     94.     86.     61.     45.     43.     43.     0.0     0.0     0.0     0.1     0.1     0.1     0.0     0.0     0.0     0.0     0.0     0.0     0.0     0.0     0.0     0.0     0.0     0.0     0.0     0.0     0.0     0.0     0.0     0.0     0.0     0.0     0.0
 2015 194    69    0.05    1.38    0.01     351    6.92    94.0   0.068   0.095   6.848   0.040     1.2    40.4     0.3    4804     4.6     510    0.06    0.51    4.52    0.21     4.6     0.0     0.0     0.0     0.0     0.0     0.0     0.0     0.0     28.     41.     55.     95.     87.     63.     48.     46.     46.     0.1     0.0     0.1     0.1     0.1     0.1     0.0     0.0     0.0     4.5     0.0     0.0     0.0     0.0     0.0     0.0     0.0     0.0     0.0     0.0     0.0     0.0     0.0     0.0     0.0     0.0     0.0
[...]
 2015 188    41    0.03    0.53    0.01     215    2.77    79.0   0.027   0.079   2.741   0.028     2.5    67.3     0.6    5230     5.3    2435    0.07    2.43    5.24    0.84     5.3     0.0     0.0     0.0     0.0     0.0     0.0     0.0     0.0   1768.    156.    134.    102.     70.     53.     51.     51.     50.     1.8     0.2     0.1     0.1     0.1     0.1     0.1     0.1     0.1     5.2     0.0     0.0     0.0     0.0     0.0     0.0     0.0     0.0     0.7     0.0     0.0     0.0     0.0     0.0     0.0     0.0     0.0
 2015 189    42    0.03    0.60    0.01     220    2.77    82.6   0.027   0.083   2.741   0.033     2.6    67.8     0.9    5019     0.0    3588    0.00    3.59    0.00    4.78     0.0     0.0     0.0     0.0     0.0     0.0     0.0     0.0     0.0   2992.    135.    116.     89.     63.     49.     48.     48.     48.     3.0     0.1     0.1     0.1     0.1     0.0     0.0     0.0     0.0     0.0     0.0     0.0     0.0     0.0     0.0     0.0     0.0     0.0     4.1     0.1     0.1     0.1     0.1     0.1     0.1     0.1     0.1
 2015 190    43    0.03    0.64    0.01     224    2.77    84.0   0.027   0.084   2.741   0.034     1.6    41.9     0.6    4631     0.0    1418    0.00    1.42    0.00    1.21     0.0     0.0     0.0     0.0     0.0     0.0     0.0     0.0     0.0    981.     38.     96.     74.     55.     44.     43.     43.     43.     1.0     0.0     0.1     0.1     0.1     0.0     0.0     0.0     0.0     0.0     0.0     0.0     0.0     0.0     0.0     0.0     0.0     0.0     0.8     0.0     0.1     0.1     0.0     0.0     0.0     0.0     0.0
 2015 191    44    0.04    0.70    0.01     229    2.77    86.4   0.027   0.087   2.741   0.036     2.6    63.1     0.9    4460     0.0    2380    0.00    2.38    0.00    2.07     0.0     0.0     0.0     0.0     0.0     0.0     0.0     0.0     0.0   1901.    108.     86.     67.     51.     42.     41.     41.     42.     1.9     0.1     0.1     0.1     0.1     0.0     0.0     0.0     0.0     0.0     0.0     0.0     0.0     0.0     0.0     0.0     0.0     0.0     1.7     0.1     0.1     0.0     0.0     0.0     0.0     0.0     0.0
 2015 192    45    0.04    0.71    0.01     233    2.77    87.0   0.027   0.087   2.741   0.036     0.1     3.2     0.0    4381     0.0     572    0.00    0.57    0.00    0.22     0.0     0.0     0.0     0.0     0.0     0.0     0.0     0.0     0.0    368.     18.     17.     11.     15.     16.     42.     42.     42.     0.4     0.0     0.0     0.0     0.0     0.0     0.0     0.0     0.0     0.0     0.0     0.0     0.0     0.0     0.0     0.0     0.0     0.0     0.1     0.0     0.0     0.0     0.0     0.0     0.0     0.0     0.0
 2015 193    46    0.04    0.72    0.01     238    2.77    87.8   0.027   0.088   2.741   0.037     0.7    17.0     0.3    4598     0.0     809    0.00    0.81    0.00    0.28     0.0     0.0     0.0     0.0     0.0     0.0     0.0     0.0     0.0    537.     30.     27.     18.     19.     47.     43.     43.     43.     0.5     0.0     0.0     0.0     0.0     0.0     0.0     0.0     0.0     0.0     0.0     0.0     0.0     0.0     0.0     0.0     0.0     0.0     0.2     0.0     0.0     0.0     0.0     0.0     0.0     0.0     0.0
 2015 194    47    0.04    0.76    0.01     243    2.77    88.7   0.027   0.089   2.741   0.037     1.6    37.2     0.6    4843     0.0     960    0.00    0.96    0.00    0.34     0.0     0.0     0.0     0.0     0.0     0.0     0.0     0.0     0.0    644.     40.     38.     25.     23.     50.     46.     46.     46.     0.6     0.0     0.0     0.0     0.0     0.1     0.0     0.0     0.0     0.0     0.0     0.0     0.0     0.0     0.0     0.0     0.0     0.0     0.2     0.0     0.0     0.0     0.0     0.0     0.0     0.0     0.0
 2015 195    48    0.04    0.76    0.01     248    2.77    89.3   0.027   0.090   2.741   0.037     0.1     3.2     0.0    5144     0.0     574    0.00    0.57    0.00    0.11     0.0     0.0     0.0     0.0     0.0     0.0     0.0     0.0     0.0    353.     26.     24.     17.     13.     16.     20.     53.     52.     0.4     0.0     0.0     0.0     0.0     0.0     0.0     0.1     0.1     0.0     0.0     0.0     0.0     0.0     0.0     0.0     0.0     0.0     0.1     0.0     0.0     0.0     0.0     0.0     0.0     0.0     0.0
 2015 196    49    0.04    0.78    0.01     253    3.07    90.1   0.030   0.091   3.043   0.038     0.7    17.8     0.3    5528   304.4     810    3.00    0.81  301.37    0.71    75.7    51.5    58.6    58.1    60.4     0.0     0.0     0.0     0.0    522.     42.     41.     28.     21.     22.     23.     55.     55.     1.3     0.5     0.6     0.6     0.6     0.0     0.0     0.1     0.1    74.9    51.0    58.0    57.6    59.9     0.0     0.0     0.0     0.0     0.3     0.1     0.1     0.1     0.1     0.0     0.0     0.0     0.0
 2015 197    50    0.04    0.82    0.01     259    3.20    91.1   0.032   0.092   3.172   0.039     1.7    41.2     0.6    5560   130.5     947    1.41    0.95  129.11    0.58    28.6    13.5    24.7    29.3    34.4     0.0     0.0     0.0     0.0    574.     53.     53.     36.     28.     26.     66.     55.     55.     0.9     0.2     0.3     0.3     0.4     0.0     0.1     0.1     0.1    28.3    13.4    24.4    29.0    34.1     0.0     0.0     0.0     0.0     0.3     0.0     0.1     0.1     0.1     0.0     0.0     0.0     0.0
 2015 198    51    0.04    0.88    0.01     264    3.24    92.6   0.032   0.093   3.205   0.039     2.5    60.9     0.9    5493    34.0    1566    0.37    1.57   33.64    0.62     0.0     0.0     4.8    11.7    17.5     0.0     0.0     0.0     0.0   1072.    161.     60.     41.     33.     28.     63.     54.     54.     1.1     0.2     0.1     0.2     0.2     0.0     0.1     0.1     0.1     0.0     0.0     4.7    11.6    17.3     0.0     0.0     0.0     0.0     0.4     0.0     0.0     0.0     0.1     0.0     0.0     0.0     0.0
 2015 199    52    0.04    0.89    0.01     270    3.42    93.1   0.034   0.094   3.386   0.040     0.1     2.7     0.0    5326   182.4     496    1.69    0.50  180.75    0.40     0.0     0.0   101.4    52.4    23.1     5.5     0.0     0.0     0.0    185.     25.     28.     31.     32.     29.     60.     53.     53.     0.2     0.0     0.9     0.5     0.3     0.1     0.1     0.1     0.1     0.0     0.0   100.5    51.9    22.9     5.4     0.0     0.0     0.0     0.0     0.0     0.1     0.1     0.1     0.0     0.0     0.0     0.0
 2015 200    53    0.04    0.90    0.01     275    3.51    93.7   0.035   0.094   3.475   0.040     0.6    15.4     0.2    5273    90.1     584    0.92    0.58   89.15    0.32     0.0     0.0    52.6    26.3    10.4     0.8     0.0     0.0     0.0    247.     38.     41.     37.     34.     30.     56.     50.     50.     0.2     0.0     0.6     0.3     0.1     0.0     0.1     0.1     0.1     0.0     0.0    52.0    26.0    10.3     0.8     0.0     0.0     0.0     0.0     0.0     0.1     0.1     0.0     0.0     0.0     0.0     0.0
 2015 201    54    0.04    0.94    0.01     280    3.55    94.4   0.035   0.095   3.511   0.040     1.5    35.1     0.5    5138    36.1     664    0.40    0.66   35.75    0.27     0.0     0.0    22.9    11.0     2.3     0.0     0.0     0.0     0.0    262.     46.     51.     40.     36.     78.     54.     49.     49.     0.3     0.0     0.3     0.2     0.1     0.1     0.1     0.0     0.0     0.0     0.0    22.7    10.8     2.2     0.0     0.0     0.0     0.0     0.1     0.0     0.1     0.0     0.0     0.0     0.0     0.0     0.0
 2015 202    55    0.05    0.99    0.01     285    3.55    95.5   0.035   0.096   3.514   0.040     2.3    56.4     0.8    5098     2.8    1141    0.03    1.14    2.78    0.38     0.0     0.0     2.8     0.0     0.0     0.0     0.0     0.0     0.0    507.    143.     59.    114.     96.     73.     52.     48.     48.     0.5     0.1     0.1     0.1     0.1     0.1     0.1     0.0     0.0     0.0     0.0     2.8     0.0     0.0     0.0     0.0     0.0     0.0     0.2     0.0     0.0     0.0     0.0     0.0     0.0     0.0     0.0
 2015 203    56    0.05    1.05    0.02     290    3.55    96.6   0.035   0.097   3.514   0.041     2.3    54.2     0.8    5121     0.0    1081    0.00    1.08    0.00    0.35     0.0     0.0     0.0     0.0     0.0     0.0     0.0     0.0     0.0    396.    133.    138.    105.     89.     70.     52.     49.     49.     0.4     0.1     0.1     0.1     0.1     0.1     0.1     0.0     0.0     0.0     0.0     0.0     0.0     0.0     0.0     0.0     0.0     0.0     0.1     0.0     0.0     0.0     0.0     0.0     0.0     0.0     0.0
 2015 204    57    0.05    1.10    0.02     295    3.55    97.6   0.035   0.098   3.514   0.041     2.2    52.2     0.7    5216     0.0     988    0.00    0.99    0.00    0.31     0.0     0.0     0.0     0.0     0.0     0.0     0.0     0.0     0.0    324.    126.    131.    100.     85.     69.     53.     50.     50.     0.3     0.1     0.1     0.1     0.1     0.1     0.1     0.0     0.0     0.0     0.0     0.0     0.0     0.0     0.0     0.0     0.0     0.0     0.1     0.0     0.0     0.0     0.0     0.0     0.0     0.0     0.0
 2015 205    58    0.05    1.10    0.02     301    3.55    98.0   0.035   0.098   3.514   0.041     0.1     1.7     0.0    5233     0.0     390    0.00    0.39    0.00    0.10     0.0     0.0     0.0     0.0     0.0     0.0     0.0     0.0     0.0     57.     21.     25.     28.     32.     69.     55.     52.     52.     0.1     0.0     0.0     0.0     0.0     0.1     0.1     0.1     0.1     0.0     0.0     0.0     0.0     0.0     0.0     0.0     0.0     0.0     0.0     0.0     0.0     0.0     0.0     0.0     0.0     0.0     0.0
 2015 206    59    0.05    1.11    0.02     306    3.55    98.5   0.035   0.099   3.514   0.041     0.5    12.8     0.2    5478     0.0     523    0.00    0.52    0.00    0.13     0.0     0.0     0.0     0.0     0.0     0.0     0.0     0.0     0.0     90.     37.     42.     36.     89.     68.     56.     53.     53.     0.1     0.0     0.0     0.0     0.1     0.1     0.1     0.1     0.1     0.0     0.0     0.0     0.0     0.0     0.0     0.0     0.0     0.0     0.0     0.0     0.0     0.0     0.0     0.0     0.0     0.0     0.0
 2015 207    60    0.05    1.14    0.02     312    3.55    99.0   0.035   0.100   3.514   0.042     1.3    30.4     0.4    5495     0.0     552    0.00    0.55    0.00    0.15     0.0     0.0     0.0     0.0     0.0     0.0     0.0     0.0     0.0     99.     47.     54.     41.     84.     66.     56.     53.     53.     0.1     0.0     0.1     0.0     0.1     0.1     0.1     0.1     0.1     0.0     0.0     0.0     0.0     0.0     0.0     0.0     0.0     0.0     0.0     0.0     0.0     0.0     0.0     0.0     0.0     0.0     0.0
 2015 208    61    0.06    1.19    0.02     317    3.55    99.9   0.035   0.100   3.514   0.042     2.0    48.8     0.7    5559     0.0     831    0.00    0.83    0.00    0.25     0.0     0.0     0.0     0.0     0.0     0.0     0.0     0.0     0.0    194.    149.     63.    115.     80.     65.     56.     54.     54.     0.2     0.1     0.1     0.1     0.1     0.1     0.1     0.1     0.1     0.0     0.0     0.0     0.0     0.0     0.0     0.0     0.0     0.0     0.1     0.0     0.0     0.0     0.0     0.0     0.0     0.0     0.0
 2015 209    62    0.06    1.24    0.02     323    3.55   100.7   0.035   0.101   3.514   0.042     1.9    47.0     0.7    5606     0.0     856    0.00    0.86    0.00    0.26     0.0     0.0     0.0     0.0     0.0     0.0     0.0     0.0     0.0    155.    138.    151.    107.     77.     64.     56.     55.     54.     0.2     0.1     0.2     0.1     0.1     0.1     0.1     0.1     0.1     0.0     0.0     0.0     0.0     0.0     0.0     0.0     0.0     0.0     0.1     0.0     0.0     0.0     0.0     0.0     0.0     0.0     0.0
 2015 210    63    0.06    1.24    0.02     328    3.55   101.1   0.035   0.102   3.514   0.042     0.1     1.4     0.0    5370     0.0     335    0.00    0.33    0.00    0.08     0.0     0.0     0.0     0.0     0.0     0.0     0.0     0.0     0.0     24.     20.     25.     16.     25.     61.     55.     54.     54.     0.0     0.0     0.0     0.0     0.0     0.1     0.1     0.1     0.1     0.0     0.0     0.0     0.0     0.0     0.0     0.0     0.0     0.0     0.0     0.0     0.0     0.0     0.0     0.0     0.0     0.0     0.0
 2015 211    64    0.06    1.25    0.02     334    3.55   101.5   0.035   0.102   3.514   0.042     0.5    10.9     0.2    5630     0.0     401    0.00    0.40    0.00    0.10     0.0     0.0     0.0     0.0     0.0     0.0     0.0     0.0     0.0     40.     36.     43.     27.     29.     61.     56.     55.     54.     0.0     0.0     0.0     0.0     0.0     0.1     0.1     0.1     0.1     0.0     0.0     0.0     0.0     0.0     0.0     0.0     0.0     0.0     0.0     0.0     0.0     0.0     0.0     0.0     0.0     0.0     0.0
 2015 212    65    0.06    1.28    0.02     339    3.55   102.0   0.035   0.102   3.514   0.042     1.1    27.3     0.4    5655     0.0     496    0.00    0.50    0.00    0.13     0.0     0.0     0.0     0.0     0.0     0.0     0.0     0.0     0.0     47.     47.     57.     36.     84.     60.     56.     55.     54.     0.0     0.0     0.1     0.0     0.1     0.1     0.1     0.1     0.1     0.0     0.0     0.0     0.0     0.0     0.0     0.0     0.0     0.0     0.0     0.0     0.0     0.0     0.0     0.0     0.0     0.0     0.0
 2015 213    66    0.06    1.32    0.02     345    3.55   102.6   0.035   0.103   3.514   0.043     1.8    44.2     0.6    5649     0.0     657    0.00    0.66    0.00    0.19     0.0     0.0     0.0     0.0     0.0     0.0     0.0     0.0     0.0     96.    149.     66.     43.     79.     59.     56.     55.     54.     0.1     0.1     0.1     0.0     0.1     0.1     0.1     0.1     0.1     0.0     0.0     0.0     0.0     0.0     0.0     0.0     0.0     0.0     0.0     0.0     0.0     0.0     0.0     0.0     0.0     0.0     0.0
 2015 214    67    0.06    1.33    0.02     351    3.69   103.0   0.037   0.103   3.655   0.043     0.1     1.9     0.0    5503   142.2     341    1.26    0.34  140.97    0.28     0.0     0.0    71.6    70.6     0.0     0.0     0.0     0.0     0.0     16.     24.     31.     24.     27.     58.     55.     54.     54.     0.0     0.0     0.7     0.7     0.0     0.1     0.1     0.1     0.1     0.0     0.0    71.0    70.0     0.0     0.0     0.0     0.0     0.0     0.0     0.0     0.1     0.1     0.0     0.0     0.0     0.0     0.0
 2015 215    68    0.06    1.34    0.02     356    3.76   103.4   0.037   0.104   3.728   0.043     0.5    11.7     0.2    5648    73.6     398    0.73    0.40   72.84    0.24     0.0     0.0    36.8    36.8     0.0     0.0     0.0     0.0     0.0     23.     39.     49.     36.     31.     57.     55.     54.     54.     0.0     0.0     0.4     0.4     0.0     0.1     0.1     0.1     0.1     0.0     0.0    36.4    36.5     0.0     0.0     0.0     0.0     0.0     0.0     0.0     0.1     0.1     0.0     0.0     0.0     0.0     0.0
 2015 216    69    0.06    1.36    0.02     362    3.80   103.8   0.038   0.104   3.759   0.043     1.1    26.4     0.4    5605    32.0     477    0.35    0.48   31.69    0.21     0.0     0.0    15.4    16.7     0.0     0.0     0.0     0.0     0.0     24.     48.     61.     43.     84.     56.     54.     53.     53.     0.0     0.0     0.2     0.2     0.1     0.1     0.1     0.1     0.1     0.0     0.0    15.2    16.5     0.0     0.0     0.0     0.0     0.0     0.0     0.0     0.1     0.0     0.0     0.0     0.0     0.0     0.0
 2015 217    70    0.06    1.37    0.02     367    3.94   104.1   0.039   0.105   3.897   0.044     0.1     2.2     0.0    5474   138.7     295    1.20    0.29  137.45    0.25     0.0     0.0    61.7    77.0     0.0     0.0     0.0     0.0     0.0     11.     27.     33.     23.     19.     21.     54.     54.     53.     0.0     0.0     0.6     0.7     0.0     0.0     0.1     0.1     0.1     0.0     0.0    61.1    76.3     0.0     0.0     0.0     0.0     0.0     0.0     0.0     0.1     0.1     0.0     0.0     0.0     0.0     0.0
 2015 218    71    0.06    1.38    0.02     373    4.05   104.5   0.040   0.105   4.007   0.044     0.5    12.4     0.2    5642   111.6     396    1.11    0.40  110.48    0.30    19.6    19.1    31.7    41.3     0.0     0.0     0.0     0.0     0.0     15.     44.     51.     36.     27.     62.     54.     54.     53.     0.2     0.2     0.4     0.4     0.0     0.1     0.1     0.1     0.1    19.4    18.9    31.3    40.9     0.0     0.0     0.0     0.0     0.0     0.0     0.0     0.1     0.1     0.0     0.0     0.0     0.0     0.0
 2015 219    72    0.06    1.41    0.02     379    4.09   105.0   0.040   0.105   4.054   0.044     1.1    27.0     0.4    5686    47.1     440    0.51    0.44   46.54    0.24     8.4     5.4    13.6    19.7     0.0     0.0     0.0     0.0     0.0     18.     55.     63.     47.     33.     61.     55.     54.     54.     0.1     0.1     0.2     0.3     0.0     0.1     0.1     0.1     0.1     8.3     5.3    13.5    19.5     0.0     0.0     0.0     0.0     0.0     0.0     0.0     0.1     0.1     0.0     0.0     0.0     0.0     0.0
 2015 220    73    0.07    1.45    0.02     384    4.10   105.5   0.041   0.106   4.063   0.044     1.6    40.5     0.5    5752     9.7     589    0.11    0.59    9.56    0.20     0.7     0.0     2.8     6.1     0.0     0.0     0.0     0.0     0.0     20.    176.     73.     54.     38.     61.     56.     55.     55.     0.0     0.2     0.1     0.1     0.0     0.1     0.1     0.1     0.1     0.7     0.0     2.7     6.1     0.0     0.0     0.0     0.0     0.0     0.0     0.0     0.0     0.0     0.0     0.0     0.0     0.0     0.0
 2015 221    74    0.07    1.45    0.02     390    4.29   105.9   0.042   0.106   4.249   0.045     0.1     1.5     0.0    5649   186.9     363    1.67    0.36  185.19    0.36    35.4     0.0    61.1    70.4    19.9     0.0     0.0     0.0     0.0      8.     27.     34.     29.     35.     61.     57.     56.     56.     0.3     0.0     0.6     0.6     0.2     0.1     0.1     0.1     0.1    35.1     0.0    60.6    69.8    19.7     0.0     0.0     0.0     0.0     0.0     0.0     0.1     0.1     0.1     0.0     0.0     0.0     0.0
 2015 222    75    0.07    1.46    0.02     396    4.39   106.3   0.043   0.107   4.350   0.045     0.3     9.2     0.1    5936   102.9     430    1.02    0.43  101.83    0.29    22.4     0.0    35.0    39.4     6.0     0.0     0.0     0.0     0.0     13.     44.     54.     44.     42.     62.     58.     57.     57.     0.2     0.0     0.4     0.4     0.1     0.1     0.1     0.1     0.1    22.2     0.0    34.6    39.1     5.9     0.0     0.0     0.0     0.0     0.0     0.0     0.1     0.1     0.0     0.0     0.0     0.0     0.0
 2015 223    76    0.07    1.48    0.02     402    4.45   106.9   0.044   0.107   4.401   0.045     0.8    20.9     0.3    5996    51.4     552    0.56    0.55   50.88    0.27    13.1     0.0    18.4    19.9     0.0     0.0     0.0     0.0     0.0     16.     57.     69.     55.    117.     62.     59.     58.     58.     0.2     0.1     0.3     0.3     0.1     0.1     0.1     0.1     0.1    13.0     0.0    18.2    19.7     0.0     0.0     0.0     0.0     0.0     0.0     0.0     0.1     0.1     0.0     0.0     0.0     0.0     0.0
 2015 224    77    0.07    1.48    0.02     408    4.61   107.2   0.045   0.108   4.568   0.045     0.0     1.2     0.0    5677   168.2     310    1.44    0.31  166.80    0.29    33.8     0.0    59.6    74.9     0.0     0.0     0.0     0.0     0.0      8.     29.     35.     28.     19.     21.     57.     57.     57.     0.3     0.0     0.5     0.7     0.0     0.0     0.1     0.1     0.1    33.5     0.0    59.0    74.3     0.0     0.0     0.0     0.0     0.0     0.0     0.0     0.1     0.1     0.0     0.0     0.0     0.0     0.0
