*PLANT N OUTPUT FILE

*DSSAT Cropping System Model Ver. 4.7.5.007 -  JAN 21, 2026 10:11:01
@YEAR DOY   DAS   DAP    CNAD    GNAD    VNAD    GN%D    VN%D     NFXC    NUPC    LNAD    SNAD    LN%D    SN%D    SHND   RN%D   NFXD   SNN0C   SNN1C
 2015 103     1     0     0.0     0.0     0.0    0.00    0.00      0.0     0.0     0.0     0.0    0.00    0.00     0.0    0.0    0.0    0.00    0.00
 2015 104     2     1     0.0     0.0     0.0    0.00    0.00      0.0     0.0     0.0     0.0    0.00    0.00     0.0    0.0    0.0    0.00    0.00
 2015 105     3     2     0.0     0.0     0.0    0.00    0.00      0.0     0.0     0.0     0.0    0.00    0.00     0.0    0.0    0.0    0.00    0.00
 2015 106     4     3     0.0     0.0     0.0    0.00    0.00      0.0     0.0     0.0     0.0    0.00    0.00     0.0    0.0    0.0    0.00    0.00
 2015 107     5     4     0.6     0.0     0.6    0.00    3.41      0.2     0.0     0.5     0.1    3.84    2.40     0.0    1.6    0.0    0.00    0.02
 2015 108     6     5     0.7     0.0     0.7    0.00    3.45      0.2     0.1     0.6     0.1    3.84    2.41     0.0    1.6    0.0    0.00    0.03
 2015 109     7     6     0.9     0.0     0.9    0.00    3.48      0.2     0.2     0.7     0.2    3.85    2.41     0.0    1.6    0.0    0.00    0.04
 2015 110     8     7     1.0     0.0     1.0    0.00    3.46      0.2     0.3     0.8     0.2    3.81    2.38     0.0    1.6    0.0    0.00    0.05
 2015 111     9     8     1.1     0.0     1.1    0.00    3.41      0.2     0.4     0.9     0.2    3.76    2.35     0.0    1.6    0.0    0.01    0.07
 2015 112    10     9     1.3     0.0     1.3    0.00    3.44      0.2     0.7     1.1     0.3    3.82    2.42     0.0    1.6    0.0    0.01    0.08
 2015 113    11    10     1.6     0.0     1.6    0.00    3.43      0.4     0.8     1.3     0.3    3.80    2.39     0.0    1.6    0.1    0.01    0.08
 2015 114    12    11     1.9     0.0     1.9    0.00    3.43      0.5     0.9     1.5     0.3    3.78    2.37     0.0    1.6    0.1    0.01    0.09
 2015 115    13    12     2.2     0.0     2.2    0.00    3.39      0.5     1.3     1.9     0.4    3.72    2.33     0.0    1.5    0.0    0.02    0.11
 2015 116    14    13     2.7     0.0     2.7    0.00    3.35      0.7     1.5     2.2     0.4    3.67    2.30     0.0    1.5    0.2    0.03    0.11
 2015 117    15    14     3.1     0.0     3.1    0.00    3.38      0.9     1.8     2.6     0.5    3.71    2.32     0.0    1.6    0.2    0.03    0.12
 2015 118    16    15     3.4     0.0     3.4    0.00    3.16      1.2     1.9     2.9     0.5    3.46    2.17     0.0    1.5    0.3    0.04    0.13
 2015 119    17    16     4.1     0.0     4.1    0.00    3.22      1.4     2.4     3.4     0.6    3.52    2.21     0.0    1.5    0.2    0.05    0.14
 2015 120    18    17     4.1     0.0     4.1    0.00    3.22      1.4     2.4     3.4     0.6    3.53    2.21     0.0    1.5    0.0    0.05    0.16
 2015 121    19    18     4.8     0.0     4.8    0.00    3.24      1.5     3.2     4.1     0.8    3.55    2.22     0.0    1.5    0.1    0.06    0.17
 2015 122    20    19     5.9     0.0     5.9    0.00    3.44      1.5     4.4     5.0     0.9    3.76    2.37     0.0    1.6    0.0    0.06    0.19
 2015 123    21    20     6.7     0.0     6.7    0.00    3.48      1.5     5.7     5.6     1.1    3.81    2.41     0.0    1.7    0.0    0.06    0.21
 2015 124    22    21     7.6     0.0     7.6    0.00    3.45      1.8     6.3     6.4     1.2    3.77    2.38     0.0    1.6    0.3    0.07    0.22
 2015 125    23    22     8.4     0.0     8.4    0.00    3.23      2.1     6.9     7.1     1.4    3.54    2.23     0.0    1.6    0.3    0.09    0.24
 2015 126    24    23     9.0     0.0     9.0    0.00    3.06      2.5     7.2     7.6     1.4    3.35    2.11     0.0    1.5    0.4    0.11    0.26
 2015 127    25    24    10.2     0.0    10.2    0.00    2.91      3.0     8.1     8.4     1.7    3.22    1.99     0.0    1.5    0.4    0.14    0.28
 2015 128    26    25    11.9     0.0    11.9    0.00    2.94      3.2     9.8     9.7     2.2    3.27    2.05     0.0    1.5    0.2    0.16    0.30
 2015 129    27    26    14.4     0.0    14.4    0.00    3.09      3.2    12.4    11.5     2.9    3.43    2.21     0.0    1.5    0.0    0.16    0.33
 2015 130    28    27    16.4     0.0    16.4    0.00    3.27      3.2    15.2    13.0     3.4    3.62    2.39     0.0    1.9    0.0    0.16    0.37
 2015 131    29    28    17.1     0.0    17.1    0.00    3.26      3.8    15.6    13.5     3.6    3.64    2.36     0.0    1.9    0.5    0.35    0.41
 2015 132    30    29    18.7     0.0    18.7    0.00    3.25      4.3    16.9    14.6     4.1    3.65    2.34     0.0    1.8    0.5    0.45    0.44
 2015 133    31    30    20.6     0.0    20.6    0.00    3.25      4.4    19.0    15.8     4.8    3.68    2.33     0.0    1.8    0.1    0.59    0.48
 2015 134    32    31    21.0     0.0    21.0    0.00    3.08      5.2    19.6    15.9     5.1    3.57    2.16     0.0    1.7    0.6    1.17    0.52
 2015 135    33    32    22.3     0.0    22.3    0.00    2.92      6.0    20.3    16.7     5.6    3.44    2.02     0.0    1.6    0.7    1.22    0.55
 2015 136    34    33    24.1     0.0    24.1    0.00    2.93      6.3    22.3    17.7     6.4    3.48    2.05     0.0    1.6    0.2    1.39    0.60
 2015 137    35    34    27.3     0.0    27.3    0.00    3.03      6.3    25.8    19.5     7.8    3.62    2.15     0.0    1.7    0.0    1.57    0.66
 2015 138    36    35    30.6     0.0    30.6    0.00    3.18      6.3    30.3    21.2     9.4    3.83    2.31     0.0    1.7    0.0    1.88    0.73
 2015 139    37    36    32.1     0.0    32.1    0.00    3.14      6.8    32.4    21.7    10.4    3.88    2.25     0.0    1.7    0.4    2.26    0.79
 2015 140    38    37    34.4     0.0    34.4    0.00    3.08      6.8    35.4    22.8    11.7    3.85    2.22     0.0    1.7    0.0    2.30    0.86
 2015 141    39    38    36.9     0.0    36.9    0.00    3.07      6.8    39.4    23.8    13.0    3.88    2.22     0.0    1.7    0.0    2.38    0.93
 2015 142    40    39    38.6     0.0    38.6    0.00    3.01      8.0    40.5    24.4    14.2    3.86    2.18     0.0    1.7    1.0    2.58    0.99
 2015 143    41    40    41.4     0.0    41.4    0.00    3.00      8.0    43.4    25.6    15.8    3.88    2.19     0.0    1.7    0.0    2.61    1.10
 2015 144    42    41    44.2     0.0    44.0    0.00    3.02      8.0    47.8    26.8    17.3    3.93    2.22     3.6    1.8    0.0    2.72    1.22
 2015 145    43    42    47.3     0.2    46.4    3.71    3.04      8.0    52.1    27.8    18.6    4.00    2.25     3.5    1.8    0.0    2.87    1.34
 2015 146    44    43    48.9     0.8    46.5    3.69    2.96      9.3    53.0    27.6    18.9    3.95    2.17     3.5    1.7    1.1    3.07    1.41
 2015 147    45    44    51.4     1.9    46.6    3.69    2.92      9.3    55.7    27.4    19.2    3.92    2.14     3.5    1.7    0.0    3.19    1.54
 2015 148    46    45    55.3     3.4    47.4    3.64    2.97      9.3    59.6    27.8    19.6    3.96    2.19     3.5    1.8    0.0    3.24    1.64
 2015 149    47    46    58.0     5.2    46.6    3.61    2.96      9.3    62.4    27.3    19.3    3.95    2.18     3.5    1.7    0.0    3.36    1.74
 2015 150    48    47    60.5     7.3    45.4    3.60    2.93      9.3    65.2    26.5    18.8    3.92    2.16     3.4    1.7    0.0    3.46    1.84
 2015 151    49    48    63.2     9.4    44.2    3.60    2.90      9.3    68.2    25.8    18.4    3.90    2.14     3.4    1.7    0.0    3.56    1.94
 2015 152    50    49    64.9    11.6    42.7    3.60    2.85      9.8    69.4    24.9    17.8    3.85    2.09     3.4    1.7    0.5    3.67    2.01
 2015 153    51    50    67.1    14.0    41.1    3.61    2.81     10.2    71.7    23.9    17.2    3.81    2.06     3.3    1.6    0.5    3.80    2.07
 2015 154    52    51    69.2    16.3    39.5    3.61    2.76     10.2    74.1    22.9    16.6    3.76    2.02     3.3    1.6    0.0    3.93    2.17
 2015 155    53    52    71.3    18.6    38.0    3.61    2.71     10.2    76.7    22.0    16.0    3.71    1.98     3.3    1.6    0.0    4.12    2.26
 2015 156    54    53    72.3    21.3    36.0    3.61    2.60     11.2    77.4    20.7    15.4    3.62    1.89     3.2    1.6    0.9    4.78    2.31
 2015 157    55    54    74.2    23.9    34.6    3.61    2.56     12.0    78.9    19.8    14.8    3.57    1.85     3.1    1.5    0.9    4.91    2.36
 2015 158    56    55    76.2    27.0    33.1    3.61    2.51     12.2    80.9    18.9    14.2    3.51    1.81     3.1    1.5    0.2    5.03    2.41
 2015 159    57    56    78.2    30.0    31.8    3.61    2.46     12.2    83.1    18.1    13.7    3.46    1.78     3.0    1.5    0.0    5.18    2.49
 2015 160    58    57    79.4    33.1    30.4    3.60    2.35     13.2    83.4    17.3    13.2    3.36    1.69     3.0    1.5    1.0    5.28    2.53
 2015 161    59    58    80.9    36.3    29.1    3.60    2.30     14.1    84.2    16.4    12.7    3.30    1.65     2.9    1.4    0.9    5.39    2.57
 2015 162    60    59    82.7    39.4    27.7    3.60    2.25     15.0    85.4    15.6    12.1    3.24    1.61     2.8    1.4    0.9    5.49    2.62
 2015 163    61    60    83.8    42.5    26.3    3.60    2.15     16.0    85.6    14.8    11.6    3.14    1.54     2.8    1.4    1.0    5.60    2.66
 2015 164    62    61    85.4    45.6    25.1    3.60    2.08     17.1    86.2    14.0    11.1    3.05    1.49     2.7    1.3    1.0    5.71    2.70
 2015 165    63    62    87.1    48.6    23.8    3.61    2.03     18.0    87.2    13.2    10.6    2.98    1.45     2.6    1.3    0.9    5.80    2.73
 2015 166    64    63    88.2    51.6    22.5    3.59    1.94     18.0    88.3    12.4    10.1    2.88    1.38     2.5    1.3    0.0    5.91    2.77
 2015 167    65    64    85.2    53.8    17.9    3.56    1.74     18.0    88.9     8.7     9.2    2.70    1.30     2.5    1.3    0.0    9.46    2.80
 2015 168    66    65    83.6    56.0    14.5    3.54    1.60     18.0    89.7     6.0     8.5    2.56    1.26     2.4    1.2    0.0   11.94    2.84
 2015 169    67    66    82.7    58.0    12.2    3.54    1.49     18.0    90.6     4.2     7.9    2.44    1.23     2.3    1.2    0.0   13.67    2.87
 2015 170    68    67    82.2    59.7    10.4    3.54    1.39     18.0    91.2     3.0     7.5    2.34    1.20     2.3    1.2    0.0   14.89    2.94
 2015 171    69    68    81.7    60.7     9.2    3.54    1.32     18.0    91.6     2.1     7.1    2.25    1.18     2.2    1.2    0.0   15.75    3.00
 2015 172    70    69    81.3    61.6     8.3    3.54    1.26     18.0    91.8     1.5     6.8    2.17    1.15     2.2    1.2    0.0   16.36    3.07
 2015 173    71    70    81.0    62.3     7.6    3.54    1.21     18.0    91.8     1.1     6.5    2.09    1.13     2.1    1.2    0.0   16.80    3.13
 2015 174    72    71    80.7    62.8     7.1    3.54    1.17     18.0    91.8     0.8     6.3    2.03    1.11     2.1    1.1    0.0   17.11    3.19
 2015 175    73    72    80.5    63.1     6.8    3.54    1.15     18.0    91.8     0.6     6.2    1.99    1.11     2.0    1.1    0.0   17.33    3.24

*DSSAT Cropping System Model Ver. 4.7.5.007 -  JAN 21, 2026 10:11:01
@YEAR DOY   DAS   DAP    CNAD    GNAD    VNAD    GN%D    VN%D     NFXC    NUPC    LNAD    SNAD    LN%D    SN%D    SHND   RN%D   NFXD   SNN0C   SNN1C
 2015 126     1     0     0.0     0.0     0.0    0.00    0.00      0.0     0.0     0.0     0.0    0.00    0.00     0.0    0.0    0.0    0.00    0.00
 2015 127     2     1     0.0     0.0     0.0    0.00    0.00      0.0     0.0     0.0     0.0    0.00    0.00     0.0    0.0    0.0    0.00    0.00
 2015 128     3     2     0.0     0.0     0.0    0.00    0.00      0.0     0.0     0.0     0.0    0.00    0.00     0.0    0.0    0.0    0.00    0.00
 2015 129     4     3     0.0     0.0     0.0    0.00    0.00      0.0     0.0     0.0     0.0    0.00    0.00     0.0    0.0    0.0    0.00    0.00
 2015 130     5     4     0.6     0.0     0.6    0.00    3.41      0.2     0.0     0.5     0.1    3.84    2.40     0.0    1.6    0.0    0.00    0.01
 2015 131     6     5     0.7     0.0     0.7    0.00    3.43      0.2     0.1     0.5     0.1    3.85    2.41     0.0    1.6    0.0    0.00    0.03
 2015 132     7     6     0.8     0.0     0.8    0.00    3.46      0.2     0.1     0.6     0.1    3.85    2.41     0.0    1.6    0.0    0.00    0.04
 2015 133     8     7     0.9     0.0     0.9    0.00    3.48      0.2     0.3     0.7     0.2    3.85    2.41     0.0    1.6    0.0    0.00    0.05
 2015 134     9     8     1.0     0.0     1.0    0.00    3.50      0.2     0.4     0.8     0.2    3.85    2.42     0.0    1.6    0.0    0.00    0.06
 2015 135    10     9     1.1     0.0     1.1    0.00    3.47      0.3     0.5     0.9     0.2    3.82    2.39     0.0    1.6    0.0    0.00    0.07
 2015 136    11    10     1.2     0.0     1.2    0.00    3.47      0.3     0.6     1.0     0.2    3.84    2.41     0.0    1.6    0.0    0.00    0.08
 2015 137    12    11     1.4     0.0     1.4    0.00    3.45      0.3     0.8     1.1     0.3    3.84    2.41     0.0    1.6    0.0    0.00    0.09
 2015 138    13    12     1.7     0.0     1.7    0.00    3.47      0.3     1.1     1.4     0.3    3.84    2.42     0.0    1.6    0.0    0.00    0.10
 2015 139    14    13     2.0     0.0     2.0    0.00    3.45      0.4     1.3     1.6     0.3    3.81    2.39     0.0    1.6    0.1    0.01    0.11
 2015 140    15    14     2.3     0.0     2.3    0.00    3.44      0.4     1.6     1.9     0.4    3.79    2.37     0.0    1.6    0.1    0.01    0.12
 2015 141    16    15     2.8     0.0     2.8    0.00    3.49      0.4     2.1     2.3     0.5    3.84    2.40     0.0    1.6    0.0    0.01    0.13
 2015 142    17    16     3.1     0.0     3.1    0.00    3.29      0.7     2.2     2.6     0.5    3.61    2.27     0.0    1.5    0.2    0.02    0.14
 2015 143    18    17     3.6     0.0     3.6    0.00    3.30      0.8     2.6     3.1     0.6    3.62    2.27     0.0    1.5    0.2    0.03    0.14
 2015 144    19    18     4.4     0.0     4.4    0.00    3.36      0.8     3.4     3.7     0.7    3.68    2.31     0.0    1.5    0.0    0.03    0.16
 2015 145    20    19     4.8     0.0     4.8    0.00    3.45      0.8     4.3     4.0     0.8    3.78    2.37     0.0    1.7    0.0    0.03    0.18
 2015 146    21    20     5.0     0.0     5.0    0.00    3.48      0.8     5.0     4.2     0.8    3.81    2.39     0.0    1.7    0.0    0.03    0.20
 2015 147    22    21     5.5     0.0     5.5    0.00    3.39      1.1     5.4     4.6     0.9    3.70    2.33     0.0    1.6    0.2    0.05    0.22
 2015 148    23    22     6.5     0.0     6.5    0.00    3.49      1.1     6.6     5.5     1.0    3.81    2.39     0.0    1.6    0.0    0.05    0.24
 2015 149    24    23     7.0     0.0     7.0    0.00    3.32      1.3     7.1     5.9     1.1    3.63    2.28     0.0    1.6    0.2    0.26    0.26
 2015 150    25    24     7.8     0.0     7.8    0.00    3.36      1.3     8.3     6.6     1.2    3.67    2.31     0.0    1.6    0.0    0.69    0.28
 2015 151    26    25     9.2     0.0     9.2    0.00    3.48      1.3    10.1     7.8     1.4    3.80    2.39     0.0    1.6    0.0    0.73    0.31
 2015 152    27    26    10.2     0.0    10.2    0.00    3.34      1.7    10.9     8.5     1.6    3.68    2.28     0.0    1.6    0.3    0.75    0.32
 2015 153    28    27    11.8     0.0    11.8    0.00    3.34      1.7    12.6     9.7     2.1    3.69    2.30     0.0    1.6    0.0    0.76    0.35
 2015 154    29    28    13.9     0.0    13.9    0.00    3.43      1.7    15.1    11.3     2.6    3.80    2.41     0.0    1.6    0.0    0.76    0.38
 2015 155    30    29    15.0     0.0    15.0    0.00    3.44      1.7    17.2    12.1     2.9    3.82    2.43     0.0    1.6    0.0    0.76    0.41
 2015 156    31    30    15.7     0.0    15.7    0.00    3.39      2.0    18.2    12.6     3.1    3.78    2.39     0.0    1.6    0.2    0.80    0.44
 2015 157    32    31    17.8     0.0    17.8    0.00    3.38      2.0    20.8    14.1     3.7    3.80    2.39     0.0    1.6    0.0    0.80    0.49
 2015 158    33    32    19.9     0.0    19.9    0.00    3.40      2.0    23.5    15.5     4.4    3.86    2.40     0.0    1.6    0.0    0.93    0.53
 2015 159    34    33    21.6     0.0    21.6    0.00    3.39      2.1    26.0    16.5     5.1    3.91    2.37     0.0    1.6    0.0    1.37    0.58
 2015 160    35    34    22.1     0.0    22.1    0.00    3.29      2.5    27.3    16.6     5.5    3.86    2.28     0.0    1.6    0.4    2.03    0.62
 2015 161    36    35    23.9     0.0    23.9    0.00    3.25      2.5    29.9    17.7     6.3    3.85    2.27     0.0    1.6    0.0    2.03    0.68
 2015 162    37    36    26.0     0.0    26.0    0.00    3.24      2.6    32.9    18.8     7.2    3.89    2.26     0.0    1.6    0.0    2.19    0.74
 2015 163    38    37    27.4     0.0    27.4    0.00    3.19      3.2    34.2    19.3     8.1    3.92    2.20     0.0    1.6    0.5    2.49    0.80
 2015 164    39    38    29.4     0.0    29.4    0.00    3.19      3.2    37.6    20.2     9.1    3.97    2.22     0.0    1.6    0.0    2.63    0.87
 2015 165    40    39    31.3     0.0    31.3    0.00    3.18      3.2    40.9    21.1    10.3    4.02    2.22     0.0    1.7    0.0    2.80    0.93
 2015 166    41    40    33.4     0.0    33.4    0.00    3.16      3.3    44.2    22.0    11.4    4.05    2.23     0.0    1.7    0.0    2.90    1.00
 2015 167    42    41    34.8     0.0    34.8    0.00    3.08      4.1    45.1    22.4    12.4    4.02    2.17     0.0    1.7    0.7    3.07    1.06
 2015 168    43    42    37.3     0.0    37.1    0.00    3.09      4.1    47.8    23.5    13.6    4.04    2.20     3.7    1.7    0.0    3.08    1.16
 2015 169    44    43    39.9     0.2    39.0    3.64    3.12      4.1    51.3    24.3    14.7    4.10    2.23     3.6    1.7    0.0    3.20    1.26
 2015 170    45    44    41.3     0.8    39.1    3.62    3.04      5.0    52.1    24.2    14.9    4.06    2.16     3.5    1.7    0.8    3.37    1.33
 2015 171    46    45    43.6     1.6    39.6    3.59    3.03      5.0    54.5    24.3    15.3    4.05    2.17     3.5    1.7    0.0    3.47    1.42
 2015 172    47    46    46.7     2.8    40.2    3.58    3.06      5.0    57.7    24.5    15.7    4.08    2.20     3.5    1.7    0.0    3.51    1.51
 2015 173    48    47    49.3     4.2    40.0    3.58    3.07      5.0    60.4    24.3    15.7    4.09    2.21     3.5    1.7    0.0    3.59    1.60
 2015 174    49    48    50.7     6.1    38.8    3.58    2.95      6.0    61.1    23.6    15.2    4.00    2.10     3.4    1.7    0.8    3.69    1.66
 2015 175    50    49    52.5     7.8    37.6    3.58    2.92      6.3    62.8    22.8    14.8    3.96    2.07     3.4    1.6    0.4    3.78    1.71
 2015 176    51    50    54.4     9.5    36.5    3.58    2.88      6.4    65.1    22.1    14.4    3.93    2.05     3.4    1.6    0.1    3.93    1.77
 2015 177    52    51    56.1    11.4    35.3    3.57    2.83      7.4    65.8    21.4    14.0    3.88    2.00     3.3    1.6    0.9    4.02    1.81
 2015 178    53    52    57.8    13.1    34.2    3.57    2.80      7.8    67.5    20.7    13.6    3.85    1.98     3.3    1.6    0.3    4.11    1.86
 2015 179    54    53    59.4    14.8    33.2    3.56    2.76      7.8    69.3    20.0    13.2    3.81    1.95     3.3    1.6    0.1    4.24    1.90
 2015 180    55    54    61.2    16.9    32.0    3.56    2.72      7.9    71.3    19.2    12.7    3.77    1.92     3.3    1.5    0.1    4.34    1.95
 2015 181    56    55    62.5    19.0    30.8    3.56    2.65      9.0    71.7    18.5    12.3    3.70    1.85     3.2    1.5    1.0    4.43    1.99
 2015 182    57    56    64.0    20.9    29.7    3.57    2.60      9.8    72.7    17.8    11.9    3.65    1.82     3.2    1.5    0.8    4.56    2.04
 2015 183    58    57    65.6    23.3    28.5    3.57    2.56     10.0    74.4    17.0    11.5    3.60    1.79     3.1    1.5    0.2    4.66    2.08
 2015 184    59    58    67.2    25.8    27.4    3.57    2.51     11.2    74.9    16.3    11.1    3.55    1.75     3.1    1.4    1.1    4.77    2.12
 2015 185    60    59    68.8    28.3    26.3    3.57    2.47     11.8    76.1    15.6    10.7    3.50    1.72     3.0    1.4    0.6    4.86    2.16
 2015 186    61    60    70.1    30.8    25.3    3.57    2.42     11.9    77.5    15.0    10.3    3.45    1.69     3.0    1.4    0.1    4.94    2.21
 2015 187    62    61    71.3    33.2    24.3    3.57    2.38     12.0    78.7    14.3     9.9    3.40    1.66     2.9    1.4    0.1    5.02    2.24
 2015 188    63    62    71.8    35.1    23.3    3.57    2.33     12.0    79.3    13.7     9.6    3.35    1.63     2.8    1.3    0.0    5.10    2.32
 2015 189    64    63    71.8    36.1    22.6    3.57    2.30     12.0    79.3    13.3     9.3    3.31    1.61     2.8    1.3    0.0    5.16    2.39
 2015 190    65    64    73.0    38.5    21.6    3.57    2.25     12.0    80.6    12.7     9.0    3.25    1.57     2.7    1.3    0.0    5.24    2.46
 2015 191    66    65    74.4    40.9    20.7    3.57    2.20     12.9    81.3    12.0     8.6    3.19    1.54     2.7    1.3    0.9    5.32    2.50
 2015 192    67    66    75.8    43.5    19.6    3.58    2.14     13.4    82.3    11.4     8.3    3.11    1.50     2.6    1.3    0.5    5.41    2.53
 2015 193    68    67    76.9    46.1    18.7    3.58    2.07     13.4    83.5    10.7     7.9    3.03    1.44     2.5    1.3    0.0    5.49    2.56
 2015 194    69    68    74.0    47.6    14.8    3.54    1.83     13.4    83.7     7.5     7.2    2.83    1.34     2.5    1.2    0.0    8.56    2.59
 2015 195    70    69    72.5    49.3    11.9    3.51    1.67     13.4    84.2     5.3     6.7    2.68    1.29     2.4    1.2    0.0   10.71    2.62
 2015 196    71    70    71.7    50.9     9.9    3.51    1.55     13.4    85.0     3.7     6.2    2.57    1.26     2.3    1.2    0.0   12.22    2.65
 2015 197    72    71    71.2    52.2     8.5    3.51    1.45     13.4    85.4     2.6     5.9    2.46    1.23     2.3    1.2    0.0   13.28    2.70
 2015 198    73    72    70.6    53.0     7.4    3.50    1.37     13.4    85.6     1.9     5.6    2.36    1.20     2.2    1.2    0.0   14.03    2.73
 2015 199    74    73    70.3    53.7     6.7    3.50    1.30     13.4    85.8     1.3     5.3    2.28    1.18     2.2    1.2    0.0   14.57    2.79
 2015 200    75    74    69.9    54.2     6.1    3.50    1.25     13.4    85.8     0.9     5.1    2.19    1.16     2.1    1.1    0.0   14.95    2.85
 2015 201    76    75    69.7    54.6     5.6    3.51    1.20     13.4    85.8     0.7     5.0    2.12    1.14     2.1    1.1    0.0   15.22    2.91
 2015 202    77    76    69.5    54.9     5.3    3.51    1.18     13.4    85.8     0.5     4.8    2.09    1.13     2.0    1.1    0.0   15.42    2.97

*DSSAT Cropping System Model Ver. 4.7.5.007 -  JAN 21, 2026 10:11:01
@YEAR DOY   DAS   DAP    CNAD    GNAD    VNAD    GN%D    VN%D     NFXC    NUPC    LNAD    SNAD    LN%D    SN%D    SHND   RN%D   NFXD   SNN0C   SNN1C
 2015 148     1     0     0.0     0.0     0.0    0.00    0.00      0.0     0.0     0.0     0.0    0.00    0.00     0.0    0.0    0.0    0.00    0.00
 2015 149     2     1     0.0     0.0     0.0    0.00    0.00      0.0     0.0     0.0     0.0    0.00    0.00     0.0    0.0    0.0    0.00    0.00
 2015 150     3     2     0.0     0.0     0.0    0.00    0.00      0.0     0.0     0.0     0.0    0.00    0.00     0.0    0.0    0.0    0.00    0.00
 2015 151     4     3     0.0     0.0     0.0    0.00    0.00      0.0     0.0     0.0     0.0    0.00    0.00     0.0    0.0    0.0    0.00    0.00
 2015 152     5     4     0.6     0.0     0.6    0.00    3.41      0.2     0.0     0.5     0.1    3.84    2.40     0.0    1.6    0.0    0.00    0.01
 2015 153     6     5     0.7     0.0     0.7    0.00    3.45      0.2     0.1     0.6     0.1    3.85    2.41     0.0    1.6    0.0    0.00    0.03
 2015 154     7     6     0.8     0.0     0.8    0.00    3.48      0.2     0.2     0.7     0.1    3.85    2.41     0.0    1.6    0.0    0.00    0.04
 2015 155     8     7     1.0     0.0     1.0    0.00    3.44      0.2     0.3     0.8     0.2    3.78    2.37     0.0    1.6    0.0    0.00    0.05
 2015 156     9     8     1.1     0.0     1.1    0.00    3.49      0.2     0.5     0.9     0.2    3.83    2.40     0.0    1.6    0.0    0.00    0.06
 2015 157    10     9     1.3     0.0     1.3    0.00    3.49      0.2     0.7     1.0     0.2    3.84    2.41     0.0    1.6    0.0    0.00    0.07
 2015 158    11    10     1.4     0.0     1.4    0.00    3.46      0.2     0.9     1.2     0.3    3.84    2.41     0.0    1.6    0.0    0.00    0.08
 2015 159    12    11     1.7     0.0     1.7    0.00    3.48      0.2     1.2     1.4     0.3    3.85    2.41     0.0    1.6    0.0    0.00    0.10
 2015 160    13    12     1.9     0.0     1.9    0.00    3.46      0.4     1.3     1.5     0.3    3.81    2.39     0.0    1.6    0.1    0.00    0.11
 2015 161    14    13     2.2     0.0     2.2    0.00    3.49      0.4     1.6     1.8     0.4    3.83    2.40     0.0    1.6    0.0    0.00    0.12
 2015 162    15    14     2.6     0.0     2.6    0.00    3.51      0.4     2.0     2.1     0.4    3.84    2.41     0.0    1.6    0.0    0.00    0.13
 2015 163    16    15     3.0     0.0     3.0    0.00    3.52      0.4     2.5     2.5     0.5    3.85    2.41     0.0    1.6    0.0    0.00    0.15
 2015 164    17    16     3.3     0.0     3.3    0.00    3.52      0.4     3.0     2.8     0.5    3.85    2.41     0.0    1.6    0.0    0.01    0.16
 2015 165    18    17     3.4     0.0     3.4    0.00    3.50      0.5     3.2     2.9     0.5    3.82    2.39     0.0    1.6    0.1    0.02    0.17
 2015 166    19    18     4.1     0.0     4.1    0.00    3.52      0.5     3.9     3.5     0.6    3.84    2.41     0.0    1.6    0.0    0.02    0.19
 2015 167    20    19     4.8     0.0     4.8    0.00    3.53      0.5     4.7     4.1     0.7    3.85    2.41     0.0    1.6    0.0    0.02    0.21
 2015 168    21    20     5.6     0.0     5.6    0.00    3.54      0.5     5.6     4.7     0.8    3.85    2.41     0.0    1.6    0.0    0.09    0.23
 2015 169    22    21     6.2     0.0     6.2    0.00    3.54      0.5     6.6     5.3     0.9    3.85    2.42     0.0    1.6    0.0    0.31    0.24
 2015 170    23    22     6.9     0.0     6.9    0.00    3.54      0.5     7.7     5.9     1.0    3.86    2.42     0.0    1.6    0.0    0.31    0.26
 2015 171    24    23     7.2     0.0     7.2    0.00    3.54      0.5     8.4     6.1     1.1    3.86    2.42     0.0    1.6    0.0    0.31    0.28
 2015 172    25    24     7.4     0.0     7.4    0.00    3.55      0.5     9.1     6.3     1.1    3.86    2.42     0.0    1.6    0.0    0.31    0.31
 2015 173    26    25     7.8     0.0     7.8    0.00    3.52      0.5    10.0     6.7     1.2    3.83    2.40     0.0    1.6    0.0    0.33    0.33
 2015 174    27    26     9.1     0.0     9.1    0.00    3.54      0.5    11.4     7.8     1.3    3.84    2.41     0.0    1.6    0.0    0.35    0.36
 2015 175    28    27     9.9     0.0     9.9    0.00    3.52      0.5    12.8     8.4     1.5    3.84    2.41     0.0    1.6    0.0    0.83    0.39
 2015 176    29    28    10.7     0.0    10.7    0.00    3.50      0.6    14.3     9.0     1.7    3.84    2.41     0.0    1.6    0.0    1.49    0.41
 2015 177    30    29    11.1     0.0    11.1    0.00    3.27      0.8    14.9     9.3     1.9    3.61    2.23     0.0    1.6    0.2    1.77    0.44
 2015 178    31    30    12.8     0.0    12.8    0.00    3.33      0.8    16.6    10.5     2.3    3.68    2.31     0.0    1.6    0.0    1.77    0.46
 2015 179    32    31    14.7     0.0    14.7    0.00    3.41      0.8    18.9    11.9     2.8    3.78    2.41     0.0    1.6    0.0    1.77    0.49
 2015 180    33    32    16.5     0.0    16.5    0.00    3.40      0.8    21.0    13.2     3.3    3.80    2.41     0.0    1.6    0.0    1.77    0.52
 2015 181    34    33    17.3     0.0    17.3    0.00    3.19      1.2    21.7    13.7     3.6    3.63    2.20     0.0    1.6    0.3    1.81    0.55
 2015 182    35    34    19.3     0.0    19.3    0.00    3.17      1.2    23.9    15.0     4.4    3.63    2.22     0.0    1.6    0.0    1.83    0.59
 2015 183    36    35    21.8     0.0    21.8    0.00    3.30      1.2    27.5    16.5     5.3    3.78    2.36     0.0    1.6    0.0    1.92    0.63
 2015 184    37    36    23.3     0.0    23.3    0.00    3.25      1.7    28.9    17.2     6.0    3.80    2.29     0.0    1.6    0.4    2.19    0.67
 2015 185    38    37    25.2     0.0    25.2    0.00    3.25      1.7    31.9    18.3     6.9    3.85    2.30     0.0    1.6    0.0    2.31    0.71
 2015 186    39    38    26.8     0.0    26.8    0.00    3.26      1.7    34.5    19.1     7.7    3.92    2.29     0.0    1.6    0.0    2.51    0.75
 2015 187    40    39    28.3     0.0    28.3    0.00    3.26      1.7    36.8    19.8     8.5    3.99    2.29     0.0    1.6    0.0    2.71    0.79
 2015 188    41    40    29.2     0.0    29.2    0.00    3.29      1.8    38.5    20.2     9.0    4.07    2.31     0.0    1.6    0.0    2.91    0.84
 2015 189    42    41    29.7     0.0    29.7    0.00    3.32      1.8    39.5    20.4     9.3    4.11    2.33     0.0    1.6    0.0    2.99    0.89
 2015 190    43    42    31.3     0.0    31.3    0.00    3.26      1.8    41.9    21.1    10.2    4.09    2.29     0.0    1.6    0.0    3.03    0.94
 2015 191    44    43    32.4     0.0    32.4    0.00    3.16      2.4    42.9    21.4    11.0    4.05    2.21     0.0    1.7    0.5    3.16    0.98
 2015 192    45    44    34.6     0.0    34.6    0.00    3.14      2.4    46.0    22.5    12.2    4.04    2.22     3.9    1.7    0.0    3.16    1.06
 2015 193    46    45    36.7     0.0    36.5    0.00    3.15      2.4    49.3    23.3    13.2    4.09    2.24     3.4    1.7    0.0    3.30    1.13
 2015 194    47    46    38.0     0.3    37.1    3.61    3.05      3.1    50.3    23.4    13.7    4.03    2.15     3.5    1.7    0.6    3.48    1.19
 2015 195    48    47    40.7     0.7    38.6    3.61    3.05      3.1    53.1    24.0    14.6    4.05    2.18     3.5    1.7    0.0    3.55    1.27
 2015 196    49    48    43.8     1.6    40.0    3.60    3.08      3.1    56.3    24.6    15.4    4.08    2.21     3.5    1.7    0.0    3.59    1.35
 2015 197    50    49    46.5     2.7    40.5    3.60    3.09      3.1    59.2    24.8    15.7    4.09    2.22     3.5    1.7    0.0    3.68    1.43
 2015 198    51    50    48.0     4.0    39.4    3.59    2.98      3.7    60.2    24.1    15.3    4.01    2.12     3.5    1.7    0.6    3.82    1.48
 2015 199    52    51    50.4     5.5    38.8    3.58    2.97      3.7    62.7    23.6    15.1    4.00    2.12     3.4    1.7    0.0    3.94    1.56
 2015 200    53    52    52.5     7.5    37.6    3.58    2.94      3.7    65.1    22.9    14.7    3.97    2.10     3.4    1.7    0.0    4.04    1.63
 2015 201    54    53    54.7     9.4    36.4    3.58    2.91      3.7    67.6    22.1    14.3    3.94    2.07     3.4    1.6    0.0    4.16    1.71
 2015 202    55    54    56.6    11.4    35.1    3.59    2.87      3.7    69.8    21.3    13.8    3.90    2.03     3.3    1.6    0.0    4.27    1.78
 2015 203    56    55    58.1    13.4    33.7    3.60    2.82      3.7    71.6    20.4    13.3    3.85    1.99     3.3    1.6    0.0    4.39    1.85
 2015 204    57    56    59.2    15.5    32.1    3.61    2.74      4.1    72.4    19.4    12.7    3.78    1.93     3.2    1.5    0.4    4.51    1.91
 2015 205    58    57    60.9    17.5    30.9    3.61    2.69      4.6    74.2    18.6    12.3    3.73    1.89     3.2    1.5    0.4    4.64    1.96
 2015 206    59    58    62.7    19.9    29.6    3.62    2.64      4.6    76.2    17.8    11.8    3.68    1.86     3.2    1.5    0.0    4.76    2.03
 2015 207    60    59    63.9    22.4    27.8    3.62    2.58      4.6    78.2    16.5    11.3    3.62    1.82     3.1    1.5    0.0    5.37    2.09
 2015 208    61    60    65.2    25.0    26.2    3.63    2.52      4.6    80.2    15.4    10.8    3.56    1.78     3.1    1.4    0.0    5.92    2.14
 2015 209    62    61    66.1    27.4    25.1    3.59    2.47      5.1    80.6    14.7    10.4    3.50    1.74     3.0    1.4    0.5    6.01    2.17
 2015 210    63    62    67.7    30.3    24.0    3.60    2.41      5.7    81.8    14.0    10.0    3.44    1.69     2.9    1.4    0.5    6.10    2.21
 2015 211    64    63    69.4    33.2    22.8    3.60    2.35      5.7    83.7    13.3     9.5    3.37    1.65     2.9    1.4    0.0    6.20    2.27
 2015 212    65    64    71.0    35.9    21.7    3.60    2.29      5.7    85.4    12.6     9.1    3.31    1.61     2.8    1.3    0.0    6.29    2.33
 2015 213    66    65    71.9    38.4    20.6    3.59    2.19      6.2    85.8    11.9     8.7    3.20    1.53     2.7    1.3    0.5    6.38    2.36
 2015 214    67    66    73.3    40.9    19.6    3.59    2.13      6.7    86.9    11.2     8.3    3.13    1.49     2.7    1.3    0.5    6.46    2.39
 2015 215    68    67    74.8    43.8    18.5    3.60    2.07      6.7    88.4    10.5     7.9    3.05    1.45     2.6    1.3    0.0    6.55    2.45
 2015 216    69    68    72.1    45.6    14.5    3.56    1.82      6.7    88.7     7.3     7.2    2.84    1.34     2.5    1.2    0.0    9.56    2.48
 2015 217    70    69    70.9    47.8    11.7    3.55    1.66      6.7    89.6     5.1     6.6    2.67    1.29     2.4    1.2    0.0   11.65    2.51
 2015 218    71    70    70.4    49.7     9.7    3.55    1.53      6.7    90.5     3.5     6.1    2.54    1.25     2.3    1.2    0.0   13.11    2.56
 2015 219    72    71    69.9    51.2     8.2    3.55    1.43      6.7    91.0     2.5     5.7    2.41    1.21     2.3    1.2    0.0   14.12    2.61
 2015 220    73    72    69.5    52.1     7.2    3.55    1.34      6.7    91.3     1.7     5.4    2.31    1.18     2.2    1.2    0.0   14.83    2.63
 2015 221    74    73    69.2    52.9     6.4    3.55    1.27      6.7    91.5     1.2     5.2    2.21    1.16     2.1    1.2    0.0   15.33    2.67
 2015 222    75    74    69.0    53.5     5.8    3.56    1.21      6.7    91.6     0.9     5.0    2.12    1.13     2.1    1.1    0.0   15.69    2.72
 2015 223    76    75    68.7    53.9     5.4    3.56    1.18      6.7    91.6     0.6     4.8    2.06    1.12     2.1    1.1    0.0   15.94    2.76
 2015 224    77    76    68.5    54.2     5.1    3.56    1.15      6.7    91.6     0.5     4.7    2.02    1.11     2.0    1.1    0.0   16.12    2.80
