*PLANT C OUTPUT FILE

*DSSAT Cropping System Model Ver. 4.7.5.007 -  JAN 21, 2026 10:11:01
@YEAR DOY   DAS   DAP   TWAD    PHAD    CMAD    CGRD    GRAD    MRAD    CHAD   CL%D   CS%D   TGNN   TGAV    GN%D    GL%D    GC%D
 2015 103     1     0      0  0.0000  0.0000  0.0000  0.0000  0.0000 0.00000  0.000  0.000 28.006 25.028  0.0000  0.0000  0.0000
 2015 104     2     1      0  0.0000  0.0000  0.0000  0.0000  0.0000 0.00000  0.000  0.000 26.508 24.337  0.0000  0.0000  0.0000
 2015 105     3     2      0  0.0000  0.0000  0.0000  0.0000  0.0000 0.00000  0.000  0.000 27.754 24.883  0.0000  0.0000  0.0000
 2015 106     4     3      0  0.0000  0.0000  0.0000  0.0000  0.0000 0.00000  0.000  0.000 26.369 23.534  0.0000  0.0000  0.0000
 2015 107     5     4     37  0.0000  0.0045  0.0030  0.0008  0.0000 0.00000  3.900  7.792 27.753 24.500  0.0000  0.0000  0.0000
 2015 108     6     5     40  0.5598  0.0042  0.3382  0.0969  0.0586 0.00000  3.836  7.614 28.002 24.260  0.0000  0.0000  0.0000
 2015 109     7     6     43  0.6839  0.0044  0.4109  0.1218  0.0689 0.00000  3.782  7.457 28.034 24.364  0.0000  0.0000  0.0000
 2015 110     8     7     48  0.7432  0.0046  0.5553  0.1119  0.0725 0.00000  3.788  7.338 27.613 23.909  0.0000  0.0000  0.0000
 2015 111     9     8     54  1.0500  0.0052  0.7570  0.1551  0.1031 0.00000  3.790  7.290 28.406 25.088  0.0000  0.0000  0.0000
 2015 112    10     9     61  1.2356  0.0057  0.6993  0.2292  0.1080 0.00000  3.717  7.281 26.792 23.650  0.0000  0.0000  0.0000
 2015 113    11    10     69  1.3606  0.0065  0.8979  0.2545  0.1283 0.00000  3.739  7.199 28.028 24.573  0.0000  0.0000  0.0000
 2015 114    12    11     78  1.6769  0.0071  1.0924  0.3058  0.1490 0.00000  3.757  7.146 27.781 24.049  0.0000  0.0000  0.0000
 2015 115    13    12     91  2.1882  0.0084  1.4380  0.3771  0.1997 0.00000  3.776  7.119 28.404 24.916  0.0000  0.0000  0.0000
 2015 116    14    13    106  2.4960  0.0093  1.6385  0.4896  0.2083 0.00000  3.787  7.100 27.229 23.603  0.0000  0.0000  0.0000
 2015 117    15    14    124  3.1258  0.0104  1.9713  0.5930  0.2387 0.00000  3.771  7.050 26.435 22.637  0.0000  0.0000  0.0000
 2015 118    16    15    146  3.4731  0.0000  2.3141  0.5594  0.2626 0.06397  4.444  7.704 26.260 22.324  0.0000  0.0000  0.0000
 2015 119    17    16    169  3.8354  0.0146  2.4053  0.7113  0.2682 0.00000  4.329  7.602 25.612 21.016  0.0000  0.0000  0.0000
 2015 120    18    17    168  0.0234  0.0012  0.0000  0.0047  0.0125 0.00000  4.321  7.591  7.477  5.319  0.0000  0.0000  0.0000
 2015 121    19    18    193  4.1754  0.0159  2.6707  0.7273  0.2911 0.00000  4.237  7.520 26.178 20.577  0.0000  0.0000  0.0000
 2015 122    20    19    221  5.0462  0.0188  2.6887  0.9516  0.3550 0.00000  4.072  7.439 25.873 21.039  0.0000  0.0000  0.0000
 2015 123    21    20    252  5.6066  0.0210  3.1526  1.0226  0.3936 0.00000  3.977  7.363 25.578 20.955  0.0000  0.0000  0.0000
 2015 124    22    21    281  5.0410  0.0225  3.2600  1.0176  0.3496 0.00000  3.956  7.309 24.230 20.094  0.0000  0.0000  0.0000
 2015 125    23    22    326  6.8514  0.0269  4.9194  1.1997  0.4984 0.00000  3.937  7.282 25.698 21.321  0.0000  0.0000  0.0000
 2015 126    24    23    367  6.5228  0.0000  4.1642  0.9715  0.4853 0.35814  5.197  8.395 24.679 21.033  0.0000  0.0000  0.0000
 2015 127    25    24    428  9.3377  0.0434  6.6545  1.5775  0.6729 0.00000  4.979  8.161 25.519 21.388  0.0000  0.0000  0.0000
 2015 128    26    25    490 10.6329  0.0525  6.7656  1.8900  0.8362 0.00000  4.802  7.975 26.344 22.458  0.0000  0.0000  0.0000
 2015 129    27    26    556 11.2936  0.0552  6.3776  2.2051  0.8092 0.00000  4.588  7.833 24.625 21.087  0.0000  0.0000  0.0000
 2015 130    28    27    618 11.2745  0.0620  5.5825  2.3099  0.8706 0.00000  4.407  7.687 25.844 21.405  0.0000  0.0000  0.0000
 2015 131    29    28    645  6.8796  0.0551  4.8229  1.2336  0.4981 0.02828  4.515  7.677 20.368 18.426  0.0000  0.0000  0.0000
 2015 132    30    29    701 10.8887  0.0632  6.8853  2.0076  0.7427 0.22493  4.729  8.286 21.358 19.591  0.0000  0.0000  0.0000
 2015 133    31    30    767 12.9088  0.0748  7.9093  2.2537  0.8924 0.48780  5.155  9.437 23.099 19.912  0.0000  0.0000  0.0000
 2015 134    32    31    837 14.6239  0.0000  9.0559  2.0402  1.0390 1.25987  6.272 12.204 24.549 20.151  0.0000  0.0000  0.0000
 2015 135    33    32    931 14.1639  0.1196  9.2982  2.1734  0.9823 1.13395  6.890 13.868 23.827 19.396  0.0000  0.0000  0.0000
 2015 136    34    33    998 13.6202  0.1474  7.6549  2.2845  0.9633 1.20665  7.564 15.320 22.895 19.158  0.0000  0.0000  0.0000
 2015 137    35    34   1083 17.3195  0.1949  8.4422  3.1411  1.3182 1.66149  8.302 16.993 24.788 20.671  0.0000  0.0000  0.0000
 2015 138    36    35   1147 17.7959  0.2483  7.1870  3.5853  1.4645 1.73117  9.092 18.475 25.378 21.435  0.0000  0.0000  0.0000
 2015 139    37    36   1214 17.5328  0.3226  8.7644  2.7942  1.6698 2.57839 10.337 20.637 25.658 23.169  0.0000  0.0000  0.0000
 2015 140    38    37   1315 17.6194  0.3503  8.1024  2.7625  1.4872 2.81655 11.123 22.517 24.608 21.291  0.0000  0.0000  0.0000
 2015 141    39    38   1405 18.3485  0.4074  7.3158  3.0729  1.5251 2.87301 11.864 24.122 24.645 20.844  0.0000  0.0000  0.0000
 2015 142    40    39   1499 17.8655  0.4780  8.8714  2.5187  1.5580 3.37659 12.813 25.788 24.636 21.009  0.0000  0.0000  0.0000
 2015 143    41    40   1597 17.3562  0.6060  7.6583  2.5511  1.7550 3.03380 13.227 26.784 25.283 22.486  0.0000  0.0000  0.0000
 2015 144    42    41   1683 19.3185  0.7462  7.4567  3.3695  1.9814 2.77678 13.570 27.457 26.306 22.820  0.0000  0.0000  0.0000
 2015 145    43    42   1772 20.2364  0.8932  8.5568  3.5603  2.2078 2.60700 13.840 27.914 26.730 23.658  3.7051  3.0000 64.3428
 2015 146    44    43   1874 20.2966  0.9908 11.5272  3.0015  2.1945 2.76943 14.316 28.580 26.453 23.244  3.6931  2.9986 64.4193
 2015 147    45    44   1965 19.0873  1.1152 10.7787  3.1894  2.1834 1.51438 14.372 28.524 26.532 23.290  3.6920  2.9986 64.4263
 2015 148    46    45   2047 17.3793  0.9987  9.2766  3.8307  1.6152 0.12999 14.017 27.901 24.782 19.436  3.6391  2.9113 64.8442
 2015 149    47    46   2123 16.3830  0.9650 10.1896  3.3145  1.4628 0.00000 13.845 27.371 24.034 18.242  3.6071  2.8285 65.1271
 2015 150    48    47   2200 17.3783  1.0300 10.9717  3.4954  1.7082 0.00000 13.724 26.833 25.605 19.400  3.5973  2.8204 65.1965
 2015 151    49    48   2280 18.0524  1.0950 11.1263  3.7047  1.9826 0.02174 13.578 26.251 27.170 20.725  3.5996  2.8397 65.1629
 2015 152    50    49   2345 14.9370  0.7720  9.7666  2.7839  1.7894 0.12834 13.629 25.987 26.350 20.424  3.5995  2.8482 65.1549
 2015 153    51    50   2421 18.4571  1.2297 11.6539  3.7301  2.2337 0.00000 13.512 25.334 26.412 22.244  3.6087  2.8700 65.0757
 2015 154    52    51   2494 17.4638  1.2140 11.2848  3.4542  2.0860 0.00000 13.385 24.675 25.524 21.563  3.6121  2.8818 65.0427
 2015 155    53    52   2566 17.5232  1.1889 11.2909  3.5158  1.9988 0.00000 13.247 24.012 24.884 20.855  3.6120  2.8858 65.0395
 2015 156    54    53   2637 17.0158  0.0000  9.6758  2.5244  1.9952 1.70131 14.051 25.496 24.883 20.854  3.6119  2.8892 65.0367
 2015 157    55    54   2707 16.6561  1.3089 10.9026  3.3111  2.0608 0.05052 13.895 24.782 25.486 21.287  3.6131  2.8945 65.0233
 2015 158    56    55   2778 16.2733  1.3080 11.0752  3.1582  2.0687 0.00000 13.718 24.023 25.461 21.400  3.6148  2.9002 65.0075
 2015 159    57    56   2846 15.6101  1.2648 10.6773  3.0433  1.9565 0.00000 13.529 23.265 25.437 20.791  3.6142  2.9012 65.0100
 2015 160    58    57   2929 15.4735  0.0000  8.9233  2.0478  1.9533 1.80632 14.403 24.967 25.621 20.770  3.6017  2.9266 65.0628
 2015 161    59    58   2985 12.9484  1.3594  9.4136  2.4260  1.7818 0.00000 14.188 24.140 24.986 20.617  3.6019  2.9241 65.0638
 2015 162    60    59   3049 15.0454  1.3594 10.3227  2.9528  2.0126 0.00000 13.967 23.286 25.885 21.516  3.6042  2.9261 65.0477
 2015 163    61    60   3120 14.1151  0.0000  8.6650  1.9554  1.9977 0.95772 14.647 24.285 25.626 21.877  3.6038  2.9355 65.0409
 2015 164    62    61   3186 14.1767  0.7591  9.4870  2.4558  1.9210 0.24149 14.758 24.072 26.036 21.221  3.6050  2.9355 65.0335
 2015 165    63    62   3246 13.7944  1.3944  9.6312  2.6731  1.8688 0.00000 14.490 23.149 26.021 21.000  3.6056  2.9347 65.0303
 2015 166    64    63   3316 13.7808  0.0000  8.8036  1.9194  1.9748 0.60041 15.088 23.837 26.448 21.840  3.5918  2.9694 65.0819
 2015 167    65    64   3252 12.8389  0.0000  7.5313  1.3377  1.8475 1.53793 15.709 24.989 26.152 21.373  3.5596  3.0382 65.2147
 2015 168    66    65   3196  9.5405  1.2013  7.1420  1.4488  1.6596 0.05792 15.073 23.805 26.219 21.921  3.5395  3.0840 65.2939
 2015 169    67    66   3156  7.8195  1.1631  5.8455  1.3743  1.4823 0.00370 14.329 22.554 26.223 21.753  3.5374  3.0913 65.2999
 2015 170    68    67   3124  5.8101  1.0109  4.4338  1.0270  1.2257 0.00000 13.605 21.400 24.951 20.894  3.5394  3.0866 65.2922
 2015 171    69    68   3098  3.8168  0.8495  3.0609  0.6475  0.9152 0.00000 12.934 20.377 23.346 18.739  3.5397  3.0804 65.2963
 2015 172    70    69   3077  3.0037  0.7723  2.4672  0.4536  0.8739 0.00000 12.277 19.408 22.489 19.223  3.5401  3.0761 65.2980
 2015 173    71    70   3059  2.1094  0.6954  1.8034  0.2513  0.8273 0.00000 11.643 18.496 23.684 19.146  3.5404  3.0731 65.2993
 2015 174    72    71   3043  1.6496  0.6557  1.3736  0.1645  0.8468 0.00000 11.008 17.610 24.070 20.048  3.5408  3.0714 65.2986
 2015 175    73    72   3029  1.0634  0.5923  0.8480  0.1016  0.7556 0.00000 10.396 16.783 23.703 19.200  3.5409  3.0700 65.2991

*DSSAT Cropping System Model Ver. 4.7.5.007 -  JAN 21, 2026 10:11:01
@YEAR DOY   DAS   DAP   TWAD    PHAD    CMAD    CGRD    GRAD    MRAD    CHAD   CL%D   CS%D   TGNN   TGAV    GN%D    GL%D    GC%D
 2015 126     1     0      0  0.0000  0.0000  0.0000  0.0000  0.0000 0.00000  0.000  0.000 24.679 21.033  0.0000  0.0000  0.0000
 2015 127     2     1      0  0.0000  0.0000  0.0000  0.0000  0.0000 0.00000  0.000  0.000 25.519 21.388  0.0000  0.0000  0.0000
 2015 128     3     2      0  0.0000  0.0000  0.0000  0.0000  0.0000 0.00000  0.000  0.000 26.344 22.458  0.0000  0.0000  0.0000
 2015 129     4     3      0  0.0000  0.0000  0.0000  0.0000  0.0000 0.00000  0.000  0.000 24.625 21.087  0.0000  0.0000  0.0000
 2015 130     5     4     37  0.0000  0.0038  0.0026  0.0008  0.0000 0.00000  3.915  7.822 25.844 21.405  0.0000  0.0000  0.0000
 2015 131     6     5     38  0.2503  0.0030  0.1532  0.0446  0.0232 0.00000  3.857  7.686 20.368 18.426  0.0000  0.0000  0.0000
 2015 132     7     6     40  0.4366  0.0033  0.2697  0.0786  0.0345 0.00000  3.809  7.551 21.358 19.591  0.0000  0.0000  0.0000
 2015 133     8     7     43  0.5772  0.0035  0.3571  0.1033  0.0435 0.00000  3.770  7.431 23.099 19.912  0.0000  0.0000  0.0000
 2015 134     9     8     47  0.7315  0.0038  0.4555  0.1313  0.0540 0.00000  3.735  7.343 24.549 20.151  0.0000  0.0000  0.0000
 2015 135    10     9     52  0.8093  0.0038  0.5836  0.1366  0.0559 0.00000  3.749  7.298 23.827 19.396  0.0000  0.0000  0.0000
 2015 136    11    10     57  0.8698  0.0042  0.5306  0.1589  0.0588 0.00000  3.706  7.276 22.895 19.158  0.0000  0.0000  0.0000
 2015 137    12    11     64  1.1864  0.0050  0.7453  0.2103  0.0854 0.00000  3.669  7.286 24.788 20.671  0.0000  0.0000  0.0000
 2015 138    13    12     72  1.3420  0.0059  0.8248  0.2525  0.1022 0.00000  3.656  7.218 25.378 21.435  0.0000  0.0000  0.0000
 2015 139    14    13     81  1.6026  0.0073  1.0555  0.2958  0.1351 0.00000  3.690  7.152 25.658 23.169  0.0000  0.0000  0.0000
 2015 140    15    14     92  1.9033  0.0074  1.2484  0.3349  0.1376 0.00000  3.719  7.121 24.608 21.291  0.0000  0.0000  0.0000
 2015 141    16    15    105  2.2801  0.0082  1.3236  0.4208  0.1577 0.00000  3.685  7.104 24.645 20.844  0.0000  0.0000  0.0000
 2015 142    17    16    122  2.6006  0.0094  1.8793  0.4628  0.1818 0.00000  3.718  7.105 24.636 21.009  0.0000  0.0000  0.0000
 2015 143    18    17    140  3.1042  0.0120  1.9809  0.5670  0.2404 0.00000  3.734  7.088 25.283 22.486  0.0000  0.0000  0.0000
 2015 144    19    18    163  3.9096  0.0139  2.3985  0.6868  0.3056 0.00000  3.713  7.075 26.306 22.820  0.0000  0.0000  0.0000
 2015 145    20    19    181  3.7566  0.0169  1.8054  0.7267  0.3272 0.00000  3.624  6.966 26.730 23.658  0.0000  0.0000  0.0000
 2015 146    21    20    196  2.9666  0.0181  1.5233  0.5489  0.2790 0.00000  3.549  6.836 26.453 23.244  0.0000  0.0000  0.0000
 2015 147    22    21    225  4.7920  0.0191  3.2874  0.8272  0.4002 0.00000  3.576  6.794 26.532 23.290  0.0000  0.0000  0.0000
 2015 148    23    22    251  4.7022  0.0174  2.6077  1.0039  0.3117 0.00000  3.549  6.827 24.782 19.436  0.0000  0.0000  0.0000
 2015 149    24    23    277  4.8912  0.0179  3.5008  0.9155  0.3023 0.00000  3.598  6.654 24.034 18.242  0.0000  0.0000  0.0000
 2015 150    25    24    299  5.8779  0.0210  3.6281  1.1748  0.3945 0.00000  3.600  6.265 25.605 19.400  0.0000  0.0000  0.0000
 2015 151    26    25    335  6.8479  0.0238  3.6397  1.4749  0.5029 0.00000  3.558  6.338 27.170 20.725  0.0000  0.0000  0.0000
 2015 152    27    26    383  7.6592  0.0265  5.3279  1.4147  0.5431 0.00000  3.588  6.538 26.350 20.424  0.0000  0.0000  0.0000
 2015 153    28    27    437  9.2716  0.0352  5.8003  1.8171  0.7248 0.00000  3.593  6.697 26.412 22.244  0.0000  0.0000  0.0000
 2015 154    29    28    492 10.0931  0.0398  5.3960  2.1887  0.7554 0.00000  3.540  6.783 25.524 21.563  0.0000  0.0000  0.0000
 2015 155    30    29    549 10.0830  0.0434  5.7144  1.9915  0.7384 0.04216  3.556  6.950 24.884 20.855  0.0000  0.0000  0.0000
 2015 156    31    30    604  9.5232  0.0491  6.0802  1.7158  0.7349 0.19179  3.814  7.679 24.883 20.854  0.0000  0.0000  0.0000
 2015 157    32    31    672 12.2559  0.0592  6.6706  2.5915  0.9342 0.40037  4.232  8.980 25.486 21.287  0.0000  0.0000  0.0000
 2015 158    33    32    737 13.2514  0.0753  7.2534  2.6278  1.0265 0.67200  4.913 10.657 25.461 21.400  0.0000  0.0000  0.0000
 2015 159    34    33    794 13.7367  0.0932  7.5185  2.3664  1.0406 0.94975  5.747 12.487 25.437 20.791  0.0000  0.0000  0.0000
 2015 160    35    34    859 14.2447  0.1179  8.3803  2.2008  1.0944 1.39635  6.820 15.001 25.621 20.770  0.0000  0.0000  0.0000
 2015 161    36    35    927 12.6092  0.1503  6.0017  2.3348  1.0180 1.20839  7.439 16.570 24.986 20.617  0.0000  0.0000  0.0000
 2015 162    37    36    997 15.1810  0.1900  7.1121  2.6826  1.2671 1.74586  8.426 18.592 25.885 21.516  0.0000  0.0000  0.0000
 2015 163    38    37   1062 15.0585  0.2407  7.9708  2.2432  1.3196 2.31069  9.782 20.958 25.626 21.877  0.0000  0.0000  0.0000
 2015 164    39    38   1128 15.3453  0.2838  6.2043  2.8682  1.3184 2.14846 10.690 22.690 26.036 21.221  0.0000  0.0000  0.0000
 2015 165    40    39   1196 15.4414  0.3288  6.2221  2.7891  1.3357 2.44068 11.642 24.413 26.021 21.000  0.0000  0.0000  0.0000
 2015 166    41    40   1270 15.8437  0.4029  6.3468  2.8942  1.4732 2.48984 12.364 25.776 26.448 21.840  0.0000  0.0000  0.0000
 2015 167    42    41   1349 15.3136  0.4490  7.7389  2.1755  1.4305 2.96223 13.300 27.275 26.152 21.373  0.0000  0.0000  0.0000
 2015 168    43    42   1429 14.3923  0.5817  6.2969  2.6118  1.4695 2.25583 13.519 27.875 26.219 21.921  0.0000  0.0000  0.0000
 2015 169    44    43   1497 15.6793  0.6628  6.6579  3.2494  1.5644 1.83577 13.751 28.209 26.223 21.753  3.6382  2.9603 64.8008
 2015 170    45    44   1576 15.6330  0.7154  8.9932  2.4693  1.4797 2.00891 14.178 28.716 24.951 20.894  3.6200  2.9293 64.9459
 2015 171    46    45   1645 14.1902  0.7089  7.7794  2.7723  1.2129 1.01875 14.198 28.650 23.346 18.739  3.5886  2.8294 65.2419
 2015 172    47    46   1719 15.1267  0.7792  8.1930  3.3975  1.3050 0.44401 13.973 28.227 22.489 19.223  3.5802  2.8096 65.3141
 2015 173    48    47   1787 14.6465  0.8094  8.6665  3.2153  1.3314 0.10794 13.774 27.702 23.684 19.146  3.5758  2.7981 65.3530
 2015 174    49    48   1871 15.5248  0.0000  7.7869  2.2048  1.4954 2.68714 14.883 30.148 24.070 20.048  3.5798  2.8155 65.3107
 2015 175    50    49   1929 13.6695  0.9568  8.7556  2.8156  1.3528 0.00000 14.786 29.586 23.703 19.200  3.5773  2.8078 65.3340
 2015 176    51    50   1991 14.6944  0.9672  9.3688  3.0515  1.4254 0.00000 14.685 29.007 24.137 19.152  3.5755  2.8022 65.3507
 2015 177    52    51   2054 13.3126  0.3794  8.5075  2.4965  1.2807 0.21376 14.881 29.047 22.947 18.340  3.5714  2.7835 65.3952
 2015 178    53    52   2111 13.1018  0.9548  8.5770  2.7203  1.2275 0.00000 14.768 28.458 22.262 17.861  3.5674  2.7628 65.4413
 2015 179    54    53   2166 12.8008  0.9611  8.4448  2.6392  1.2438 0.00000 14.645 27.852 22.777 17.860  3.5644  2.7475 65.4753
 2015 180    55    54   2226 13.7469  1.0146  9.1446  2.7957  1.4294 0.00000 14.518 27.202 23.711 19.034  3.5644  2.7496 65.4727
 2015 181    56    55   2292 13.3569  0.0000  8.1912  2.2163  1.4343 0.54115 15.022 27.856 23.979 19.060  3.5645  2.7516 65.4700
 2015 182    57    56   2345 13.1268  1.1018  8.5407  2.6238  1.5669 0.08279 14.885 27.181 25.518 19.946  3.5665  2.7603 65.4489
 2015 183    58    57   2402 13.2331  1.1171  9.0328  2.5939  1.6107 0.00000 14.722 26.431 25.262 20.308  3.5696  2.7724 65.4176
 2015 184    59    58   2459 13.0227  1.1003  8.9739  2.5152  1.5871 0.00000 14.548 25.670 25.268 20.142  3.5717  2.7810 65.3961
 2015 185    60    59   2514 12.6702  1.0738  8.6889  2.4625  1.5663 0.00000 14.358 24.902 25.708 19.928  3.5730  2.7869 65.3820
 2015 186    61    60   2563 11.0160  1.0327  7.8559  2.1356  1.4241 0.00000 14.155 24.138 25.606 19.274  3.5728  2.7871 65.3832
 2015 187    62    61   2606  9.7853  1.0107  7.2091  1.8152  1.3330 0.00000 13.943 23.368 25.222 19.096  3.5723  2.7859 65.3873
 2015 188    63    62   2630  6.4380  0.9630  5.2890  1.0642  1.0204 0.00006 13.729 22.611 21.852 18.134  3.5709  2.7793 65.4025
 2015 189    64    63   2636  2.8642  0.8748  2.8848  0.3456  0.6904 0.00004 13.478 21.888 17.709 16.091  3.5693  2.7676 65.4241
 2015 190    65    64   2679  9.9198  0.9272  7.1811  1.9531  1.2111 0.00000 13.253 21.115 23.368 18.581  3.5708  2.7597 65.4229
 2015 191    66    65   2730 11.6302  0.9402  7.8736  2.2639  1.5005 0.04146 13.029 20.349 26.083 20.228  3.5731  2.7640 65.4040
 2015 192    67    66   2780 11.4631  0.9384  8.0132  2.1594  1.5802 0.00000 12.798 19.527 26.574 21.063  3.5761  2.7731 65.3761
 2015 193    68    67   2832 10.5953  0.3168  7.1421  1.7637  1.4443 0.21657 13.021 19.580 26.231 20.270  3.5761  2.7809 65.3685
 2015 194    69    68   2786 11.1375  0.0000  5.5940  0.8090  1.5362 2.58559 14.161 22.535 26.958 20.859  3.5385  2.8671 65.5175
 2015 195    70    69   2744  8.2490  0.5495  5.8435  1.0848  1.3029 0.13896 13.888 21.854 26.493 20.633  3.5123  2.9280 65.6200
 2015 196    71    70   2711  6.4607  0.8024  4.7142  1.1133  1.1619 0.00275 13.219 20.677 26.664 20.562  3.5111  2.9356 65.6203
 2015 197    72    71   2685  4.6918  0.7007  3.5210  0.7804  0.9665 0.00085 12.564 19.594 25.114 20.010  3.5113  2.9370 65.6175
 2015 198    73    72   2665  3.5407  0.5527  2.6793  0.4674  0.8367 0.02340 12.020 18.733 24.498 19.358  3.5036  2.9525 65.6499
 2015 199    74    73   2648  2.4144  0.5458  1.9287  0.3388  0.7124 0.00000 11.418 17.822 23.513 18.579  3.5043  2.9496 65.6488
 2015 200    75    74   2633  1.8570  0.5095  1.5166  0.2001  0.7219 0.00000 10.823 16.951 24.085 19.460  3.5050  2.9482 65.6459
 2015 201    76    75   2620  1.5081  0.4815  1.1372  0.1362  0.7823 0.00000 10.222 16.104 25.988 20.809  3.5057  2.9479 65.6413
 2015 202    77    76   2607  1.0062  0.4359  0.6634  0.0795  0.7377 0.00000  9.626 15.300 25.828 20.718  3.5062  2.9477 65.6388

*DSSAT Cropping System Model Ver. 4.7.5.007 -  JAN 21, 2026 10:11:01
@YEAR DOY   DAS   DAP   TWAD    PHAD    CMAD    CGRD    GRAD    MRAD    CHAD   CL%D   CS%D   TGNN   TGAV    GN%D    GL%D    GC%D
 2015 148     1     0      0  0.0000  0.0000  0.0000  0.0000  0.0000 0.00000  0.000  0.000 24.782 19.436  0.0000  0.0000  0.0000
 2015 149     2     1      0  0.0000  0.0000  0.0000  0.0000  0.0000 0.00000  0.000  0.000 24.034 18.242  0.0000  0.0000  0.0000
 2015 150     3     2      0  0.0000  0.0000  0.0000  0.0000  0.0000 0.00000  0.000  0.000 25.605 19.400  0.0000  0.0000  0.0000
 2015 151     4     3      0  0.0000  0.0000  0.0000  0.0000  0.0000 0.00000  0.000  0.000 27.170 20.725  0.0000  0.0000  0.0000
 2015 152     5     4     37  0.0000  0.0035  0.0024  0.0007  0.0000 0.00000  3.921  7.836 26.350 20.424  0.0000  0.0000  0.0000
 2015 153     6     5     39  0.5075  0.0038  0.3085  0.0951  0.0476 0.00000  3.857  7.669 26.412 22.244  0.0000  0.0000  0.0000
 2015 154     7     6     43  0.5963  0.0039  0.3651  0.1171  0.0511 0.00000  3.806  7.524 25.524 21.563  0.0000  0.0000  0.0000
 2015 155     8     7     47  0.7350  0.0039  0.5611  0.1179  0.0568 0.00000  3.787  7.408 24.884 20.855  0.0000  0.0000  0.0000
 2015 156     9     8     52  0.8733  0.0043  0.4989  0.1872  0.0661 0.00000  3.732  7.329 24.883 20.854  0.0000  0.0000  0.0000
 2015 157    10     9     58  1.0365  0.0047  0.6429  0.2031  0.0795 0.00000  3.692  7.298 25.486 21.287  0.0000  0.0000  0.0000
 2015 158    11    10     65  1.1917  0.0053  0.7473  0.2295  0.0911 0.00000  3.654  7.303 25.461 21.400  0.0000  0.0000  0.0000
 2015 159    12    11     72  1.3083  0.0057  0.8066  0.2704  0.0967 0.00000  3.645  7.238 25.437 20.791  0.0000  0.0000  0.0000
 2015 160    13    12     81  1.5454  0.0063  1.0254  0.2920  0.1125 0.00000  3.662  7.149 25.621 20.770  0.0000  0.0000  0.0000
 2015 161    14    13     90  1.5259  0.0070  0.9370  0.3244  0.1132 0.00000  3.646  7.103 24.986 20.617  0.0000  0.0000  0.0000
 2015 162    15    14    102  2.0669  0.0081  1.2587  0.4426  0.1553 0.00000  3.635  7.081 25.885 21.516  0.0000  0.0000  0.0000
 2015 163    16    15    116  2.3785  0.0094  1.4576  0.4433  0.1815 0.00000  3.623  7.064 25.626 21.877  0.0000  0.0000  0.0000
 2015 164    17    16    130  2.5523  0.0101  1.4741  0.4687  0.1908 0.00000  3.586  6.973 26.036 21.221  0.0000  0.0000  0.0000
 2015 165    18    17    142  2.2599  0.0111  1.4732  0.3947  0.1791 0.00000  3.589  6.876 26.021 21.000  0.0000  0.0000  0.0000
 2015 166    19    18    161  3.2687  0.0126  1.9178  0.6474  0.2528 0.00000  3.581  6.894 26.448 21.840  0.0000  0.0000  0.0000
 2015 167    20    19    182  3.6657  0.0139  2.2505  0.7027  0.2745 0.00000  3.580  6.921 26.152 21.373  0.0000  0.0000  0.0000
 2015 168    21    20    204  4.1766  0.0164  2.5580  0.8018  0.3236 0.00000  3.574  6.830 26.219 21.921  0.0000  0.0000  0.0000
 2015 169    22    21    228  5.0516  0.0181  3.0559  0.9674  0.3796 0.00000  3.564  6.579 26.223 21.753  0.0000  0.0000  0.0000
 2015 170    23    22    258  5.3899  0.0192  3.1509  1.0605  0.3802 0.00000  3.539  6.581 24.951 20.894  0.0000  0.0000  0.0000
 2015 171    24    23    277  3.4953  0.0188  1.9799  0.7073  0.2494 0.00000  3.496  6.512 23.346 18.739  0.0000  0.0000  0.0000
 2015 172    25    24    294  3.2996  0.0206  1.8455  0.6797  0.2529 0.00000  3.449  6.427 22.489 19.223  0.0000  0.0000  0.0000
 2015 173    26    25    320  4.8848  0.0214  3.0310  1.0106  0.3343 0.00000  3.468  6.385 23.684 19.146  0.0000  0.0000  0.0000
 2015 174    27    26    356  6.5269  0.0248  3.9135  1.4643  0.4474 0.00000  3.483  6.444 24.070 20.048  0.0000  0.0000  0.0000
 2015 175    28    27    383  6.8159  0.0261  4.2677  1.4327  0.4473 0.00000  3.485  6.226 23.703 19.200  0.0000  0.0000  0.0000
 2015 176    29    28    411  7.6556  0.0279  4.7971  1.5957  0.4985 0.00000  3.489  5.978 24.137 19.152  0.0000  0.0000  0.0000
 2015 177    30    29    452  7.6521  0.0000  4.7770  1.1470  0.4708 0.63396  5.424  7.620 22.947 18.340  0.0000  0.0000  0.0000
 2015 178    31    30    500  8.0852  0.0411  4.7480  1.7895  0.4809 0.05485  5.272  7.839 22.262 17.861  0.0000  0.0000  0.0000
 2015 179    32    31    548  8.7922  0.0456  4.5321  2.0734  0.5317 0.15793  5.284  8.440 22.777 17.860  0.0000  0.0000  0.0000
 2015 180    33    32    609 10.3842  0.0565  5.8573  2.1974  0.6761 0.36069  5.537  9.596 23.711 19.034  0.0000  0.0000  0.0000
 2015 181    34    33    681 11.1771  0.0000  6.9610  1.6252  0.7404 0.94698  6.544 12.441 23.979 19.060  0.0000  0.0000  0.0000
 2015 182    35    34    751 12.0212  0.0987  6.7516  2.3247  0.8805 0.81854  7.056 13.868 25.518 19.946  0.0000  0.0000  0.0000
 2015 183    36    35    808 13.1434  0.1248  5.4013  2.7681  0.9825 0.84246  7.520 15.060 25.262 20.308  0.0000  0.0000  0.0000
 2015 184    37    36    869 13.6860  0.1447  7.8629  2.2316  1.0239 1.50085  8.635 17.178 25.268 20.142  0.0000  0.0000  0.0000
 2015 185    38    37    933 13.7108  0.1765  6.2481  2.6042  1.0472 1.44652  9.370 18.781 25.708 19.928  0.0000  0.0000  0.0000
 2015 186    39    38    985 12.7526  0.2000  5.9312  2.2534  0.9867 1.60770 10.240 20.405 25.606 19.274  0.0000  0.0000  0.0000
 2015 187    40    39   1031 11.7579  0.2323  5.2239  2.0696  0.9426 1.63737 11.061 21.865 25.222 19.096  0.0000  0.0000  0.0000
 2015 188    41    40   1054  7.9453  0.2501  3.2941  1.4613  0.6857 1.18209 11.664 22.790 21.852 18.134  0.0000  0.0000  0.0000
 2015 189    42    41   1062  3.5751  0.2283  1.2996  0.7453  0.4130 0.50986 11.832 23.019 17.709 16.091  0.0000  0.0000  0.0000
 2015 190    43    42   1129 12.4685  0.2861  5.3772  2.1855  0.9339 2.10976 12.500 24.509 23.368 18.581  0.0000  0.0000  0.0000
 2015 191    44    43   1212 14.8745  0.3595  7.4994  2.0698  1.2480 2.93714 13.584 26.608 26.083 20.228  0.0000  0.0000  0.0000
 2015 192    45    44   1293 15.0941  0.4742  6.1707  2.8135  1.3750 2.44107 13.952 27.551 26.574 21.063  0.0000  0.0000  0.0000
 2015 193    46    45   1358 14.6642  0.5336  5.9416  2.9310  1.3175 2.06728 14.310 28.176 26.231 20.270  0.0000  0.0000  0.0000
 2015 194    47    46   1442 15.8094  0.6235  8.7226  2.2973  1.4760 2.59793 14.901 29.057 26.958 20.859  3.6112  2.9138 65.0163
 2015 195    48    47   1523 15.4769  0.7147  7.5977  2.9816  1.4635 1.64541 14.919 29.181 26.493 20.633  3.6070  2.9044 65.0516
 2015 196    49    48   1604 15.7091  0.7797  7.8611  3.2826  1.5116 1.15640 14.760 29.021 26.664 20.562  3.6049  2.8994 65.0701
 2015 197    50    49   1678 15.3824  0.8289  8.4757  3.1940  1.4343 0.78794 14.664 28.759 25.114 20.010  3.5979  2.8803 65.1325
 2015 198    51    50   1762 15.7048  0.0000  7.6932  2.4060  1.4042 2.58950 15.710 31.081 24.498 19.358  3.5892  2.8519 65.2153
 2015 199    52    51   1827 14.5983  0.9322  9.0723  3.1732  1.2916 0.03969 15.564 30.512 23.513 18.579  3.5797  2.8140 65.3125
 2015 200    53    52   1893 14.9458  0.9911  9.6108  3.1371  1.4269 0.00000 15.449 29.927 24.085 19.460  3.5784  2.8120 65.3227
 2015 201    54    53   1961 16.1240  1.0545 10.2025  3.3574  1.7031 0.00000 15.333 29.298 25.988 20.809  3.5849  2.8324 65.2619
 2015 202    55    54   2023 14.6146  1.0631  9.4664  3.0030  1.6415 0.00000 15.213 28.650 25.828 20.718  3.5888  2.8449 65.2254
 2015 203    56    55   2077 13.7507  1.1279  9.1594  2.6955  1.7835 0.00000 15.118 27.964 26.631 22.071  3.5977  2.8640 65.1504
 2015 204    57    56   2131 12.8890  0.4998  8.4220  2.0903  1.8952 0.25878 15.419 28.012 27.045 23.244  3.6099  2.8818 65.0566
 2015 205    58    57   2193 15.1485  1.1366  9.5524  3.1422  1.7638 0.13860 15.293 27.351 25.925 21.155  3.6110  2.8874 65.0438
 2015 206    59    58   2253 14.5351  1.1836  9.6783  2.8834  1.9171 0.00000 15.134 26.567 26.814 22.389  3.6168  2.8988 64.9961
 2015 207    60    59   2297 14.3495  1.1788  9.5293  2.8333  1.9561 0.00000 14.958 25.715 27.224 22.625  3.6222  2.9084 64.9527
 2015 208    61    60   2345 14.3314  1.1321  9.5607  2.8685  1.9076 0.03272 14.770 24.883 27.393 22.169  3.6253  2.9155 64.9262
 2015 209    62    61   2392 10.3236  0.7769  7.3836  1.5793  1.5692 0.11270 14.765 24.465 26.999 21.220  3.5905  2.9885 65.0709
 2015 210    63    62   2453 13.2491  0.8495  8.9782  2.4640  1.7944 0.08925 14.723 23.948 27.541 21.829  3.5951  2.9862 65.0442
 2015 211    64    63   2512 13.2309  1.0940  9.1945  2.5872  1.7841 0.00000 14.513 23.092 26.700 22.026  3.5997  2.9849 65.0171
 2015 212    65    64   2568 12.8162  1.0529  8.8135  2.5184  1.7229 0.00000 14.294 22.239 26.971 21.671  3.6023  2.9828 65.0027
 2015 213    66    65   2631 12.1454  0.0000  7.2627  1.6101  1.6414 1.12726 15.163 23.728 26.549 21.386  3.5932  3.0024 65.0401
 2015 214    67    66   2683 11.7642  1.0818  8.2310  2.3012  1.5283 0.00000 14.912 22.828 26.150 20.604  3.5939  2.9958 65.0424
 2015 215    68    67   2734 11.5442  1.0773  8.3378  2.1733  1.6369 0.00000 14.667 21.906 26.623 21.768  3.5968  2.9935 65.0263
 2015 216    69    68   2694 11.8810  0.0000  6.3798  0.9986  1.6809 2.20229 15.692 24.349 26.990 22.064  3.5557  3.0826 65.1944
 2015 217    70    69   2659  9.3354  0.6479  6.4843  1.4191  1.5596 0.14922 15.370 23.605 27.441 22.791  3.5451  3.1117 65.2312
 2015 218    71    70   2631  7.1786  0.9226  5.1955  1.2836  1.3807 0.00000 14.605 22.313 27.526 22.840  3.5500  3.1072 65.2056
 2015 219    72    71   2609  5.4920  0.7675  3.9411  0.9171  1.2870 0.01132 13.892 21.171 28.175 23.383  3.5546  3.1028 65.1808
 2015 220    73    72   2591  3.7906  0.6587  2.8202  0.5481  1.0133 0.00682 13.206 20.133 27.413 21.542  3.5518  3.1087 65.1924
 2015 221    74    73   2576  2.8893  0.5667  2.1186  0.3953  0.9441 0.01412 12.576 19.217 27.971 21.438  3.5538  3.1046 65.1841
 2015 222    75    74   2563  2.3043  0.5501  1.7050  0.2416  0.9773 0.00884 11.924 18.295 28.296 22.942  3.5558  3.1021 65.1742
 2015 223    76    75   2550  1.3254  0.5179  0.9727  0.1165  0.8112 0.00000 11.240 17.377 26.255 21.769  3.5563  3.1012 65.1717
 2015 224    77    76   2538  1.1015  0.4778  0.7410  0.0888  0.7933 0.00000 10.577 16.504 26.423 21.865  3.5567  3.1006 65.1698
