*GROWTH ASPECTS OUTPUT FILE

*DSSAT Cropping System Model Ver. 4.7.5.007 -  JAN 21, 2026 10:11:01
!                                                                                                                                                                                                                                                    Root Dens. (cm/cm3) by soil depth (cm):
!                                                                                                                                                                                                                                                   0-10   10-20   20-30   30-40   40-50   50-60   60-70   70-80   80-90
@YEAR DOY   DAS   DAP   L#SD   GSTD   LAID   LWAD   SWAD   GWAD   RWAD   VWAD   CWAD   G#AD    GWGD   HIAD   PWAD   P#AD   WSPD   WSGD   NSTD  PST1A  PST2A   KSTD   EWSD    LN%D   SH%D   HIPD   PWDD   PWTD   SLAD   CHTD   CWID   NWAD   RDPD    RL1D    RL2D    RL3D    RL4D    RL5D    RL6D    RL7D    RL8D    RL9D    SNW0C   SNW1C
 2015 103     1     0    0.0      0  0.000      0      0      0      0      0      0      0     0.0  0.000      0      0  0.000  0.000  0.000  0.000  0.000  0.000  0.000    0.00   0.00   0.00      0      0    0.0   0.00   0.00    0.0   0.00    0.00    0.00    0.00    0.00    0.00    0.00    0.00    0.00    0.00        0       0
 2015 104     2     1    0.0      0  0.000      0      0      0      0      0      0      0     0.0  0.000      0      0  0.000  0.000  0.000  0.000  0.000  0.000  0.000    0.00   0.00   0.00      0      0    0.0   0.00   0.00    0.0   0.00    0.00    0.00    0.00    0.00    0.00    0.00    0.00    0.00    0.00        0       0
 2015 105     3     2    0.0      0  0.000      0      0      0      0      0      0      0     0.0  0.000      0      0  0.000  0.000  0.000  0.000  0.000  0.000  0.000    0.00   0.00   0.00      0      0    0.0   0.00   0.00    0.0   0.00    0.00    0.00    0.00    0.00    0.00    0.00    0.00    0.00    0.00        0       0
 2015 106     4     3    0.0      0  0.000      0      0      0      0      0      0      0     0.0  0.000      0      0  0.000  0.000  0.000  0.000  0.000  0.000  0.000    0.00   0.00   0.00      0      0    0.0   0.00   0.00    0.0   0.00    0.00    0.00    0.00    0.00    0.00    0.00    0.00    0.00    0.00        0       0
 2015 107     5     4    0.2      0  0.028     13      6      0     18     19     19      0     0.0  0.000      0      0  0.000  0.000  0.000  0.000  0.000  0.000  0.000    3.84   0.00   0.00      0      0  213.8   0.04   0.03    4.5   0.27    0.07    0.07    0.03    0.00    0.00    0.00    0.00    0.00    0.00        0       1
 2015 108     6     5    0.5      0  0.037     15      6      0     19     21     21      0     0.0  0.000      0      0  0.000  0.000  0.000  0.000  0.000  0.000  0.000    3.84   0.00   0.00      0      0  240.6   0.05   0.03    4.4   0.29    0.07    0.07    0.03    0.00    0.00    0.00    0.00    0.00    0.00        0       1
 2015 109     7     6    0.8      0  0.049     18      6      0     19     25     25      0     0.0  0.000      0      0  0.000  0.000  0.000  0.000  0.000  0.000  0.000    3.85   0.00   0.00      0      0  266.8   0.06   0.04    4.3   0.31    0.07    0.07    0.03    0.00    0.00    0.00    0.00    0.00    0.00        0       2
 2015 110     8     7    1.1      0  0.064     21      7      0     20     28     28      0     0.0  0.000      0      0  0.000  0.000  0.039  0.000  0.000  0.000  0.013    3.81   0.00   0.00      0      0  299.2   0.07   0.04    4.2   0.34    0.07    0.07    0.04    0.00    0.00    0.00    0.00    0.00    0.00        0       2
 2015 111     9     8    1.4      0  0.079     25      8      0     21     33     33      0     0.0  0.000      0      0  0.000  0.000  0.034  0.000  0.000  0.000  0.000    3.76   0.00   0.00      0      0  318.3   0.08   0.05    4.2   0.36    0.08    0.07    0.04    0.00    0.00    0.00    0.00    0.00    0.00        1       3
 2015 112    10     9    1.7      0  0.092     28     10      0     23     39     39      0     0.0  0.000      0      0  0.000  0.000  0.000  0.000  0.000  0.000  0.000    3.82   0.00   0.00      0      0  327.7   0.09   0.06    4.2   0.38    0.08    0.08    0.04    0.00    0.00    0.00    0.00    0.00    0.00        1       3
 2015 113    11    10    2.0      0  0.118     34     12      0     23     46     46      0     0.0  0.000      0      0  0.000  0.000  0.000  0.000  0.000  0.000  0.000    3.80   0.00   0.00      0      0  349.0   0.10   0.07    4.3   0.40    0.08    0.08    0.04    0.00    0.00    0.00    0.00    0.00    0.00        1       4
 2015 114    12    11    2.3      0  0.149     41     14      0     24     55     55      0     0.0  0.000      0      0  0.000  0.000  0.000  0.000  0.000  0.000  0.000    3.78   0.00   0.00      0      0  363.7   0.11   0.07    4.4   0.42    0.09    0.08    0.05    0.01    0.00    0.00    0.00    0.00    0.00        1       4
 2015 115    13    12    2.6      0  0.186     50     16      0     25     66     66      0     0.0  0.000      0      0  0.000  0.000  0.000  0.000  0.000  0.000  0.000    3.72   0.00   0.00      0      0  370.5   0.12   0.08    4.3   0.44    0.09    0.08    0.05    0.01    0.00    0.00    0.00    0.00    0.00        2       5
 2015 116    14    13    2.9      0  0.229     60     19      0     26     79     79      0     0.0  0.000      0      0  0.000  0.000  0.000  0.000  0.000  0.000  0.000    3.67   0.00   0.00      0      0  378.9   0.13   0.09    5.0   0.46    0.09    0.09    0.05    0.01    0.00    0.00    0.00    0.00    0.00        2       5
 2015 117    15    14    3.1      0  0.248     69     21      0     33     90     90      0     0.0  0.000      0      0  0.000  0.318  0.000  0.000  0.000  0.000  0.000    3.71   0.00   0.00      0      0  358.2   0.13   0.10    5.2   0.48    0.12    0.10    0.06    0.02    0.00    0.00    0.00    0.00    0.00        3       6
 2015 118    16    15    3.3      0  0.290     83     25      0     37    108    108      0     0.0  0.000      0      0  0.000  0.000  0.113  0.000  0.000  0.000  0.000    3.46   0.00   0.00      0      0  350.4   0.14   0.11    6.1   0.50    0.13    0.11    0.07    0.02    0.00    0.00    0.00    0.00    0.00        4       7
 2015 119    17    16    3.6      0  0.328     97     29      0     41    126    126      0     0.0  0.000      0      0  0.000  0.104  0.000  0.000  0.000  0.000  0.000    3.52   0.00   0.00      0      0  338.0   0.15   0.12    6.2   0.50    0.14    0.12    0.08    0.02    0.01    0.00    0.00    0.00    0.00        5       7
 2015 120    18    17    3.6      0  0.328     97     29      0     41    126    126      0     0.0  0.000      0      0  0.000  0.000  0.000  0.000  0.000  0.000  0.000    3.53   0.00   0.00      0      0  338.0   0.15   0.13    6.0   0.50    0.14    0.12    0.08    0.02    0.01    0.00    0.00    0.00    0.00        5       8
 2015 121    19    18    3.8      0  0.386    115     35      0     42    149    149      0     0.0  0.000      0      0  0.000  0.000  0.000  0.000  0.000  0.000  0.000    3.55   0.00   0.00      0      0  336.4   0.15   0.13    6.1   0.50    0.14    0.13    0.08    0.03    0.01    0.00    0.00    0.00    0.00        6       8
 2015 122    20    19    4.0      0  0.435    132     40      0     48    172    172      0     0.0  0.000      0      0  0.000  0.175  0.000  0.000  0.000  0.000  0.000    3.76   0.00   0.00      0      0  328.9   0.16   0.14    6.0   0.50    0.16    0.14    0.09    0.03    0.01    0.00    0.00    0.00    0.00        6       9
 2015 123    21    20    4.2      0  0.473    147     45      0     58    192    192      0     0.0  0.000      0      0  0.000  0.302  0.000  0.000  0.000  0.000  0.000    3.81   0.00   0.00      0      0  320.8   0.17   0.15    6.0   0.50    0.20    0.17    0.11    0.04    0.01    0.00    0.00    0.00    0.00        6      10
 2015 124    22    21    4.5      0  0.566    169     51      0     60    220    220      0     0.0  0.000      0      0  0.000  0.000  0.000  0.000  0.000  0.000  0.000    3.77   0.00   0.00      0      0  335.6   0.17   0.16    6.2   0.50    0.20    0.17    0.12    0.04    0.01    0.00    0.00    0.00    0.00        7      11
 2015 125    23    22    4.7      0  0.691    201     61      0     62    261    261      0     0.0  0.000      0      0  0.000  0.000  0.000  0.000  0.000  0.000  0.000    3.54   0.00   0.00      0      0  344.3   0.18   0.17    7.2   0.50    0.21    0.17    0.12    0.05    0.01    0.00    0.00    0.00    0.00        9      12
 2015 126    24    23    5.0      0  0.801    226     68      0     68    295    295      0     0.0  0.000      0      0  0.000  0.000  0.126  0.000  0.000  0.000  0.000    3.35   0.00   0.00      0      0  354.1   0.20   0.19    8.4   0.50    0.23    0.19    0.13    0.05    0.01    0.00    0.00    0.00    0.00       11      13
 2015 127    25    24    5.2      0  0.929    262     88      0     74    350    350      0     0.0  0.000      0      0  0.000  0.000  0.000  0.000  0.000  0.000  0.000    3.22   0.00   0.00      0      0  355.2   0.21   0.21    9.9   0.50    0.24    0.20    0.14    0.06    0.02    0.00    0.00    0.00    0.00       13      15
 2015 128    26    25    5.5      0  1.074    297    109      0     79    406    406      0     0.0  0.000      0      0  0.000  0.000  0.000  0.000  0.000  0.000  0.000    3.27   0.00   0.00      0      0  361.1   0.23   0.23   10.2   0.50    0.26    0.22    0.15    0.06    0.02    0.00    0.00    0.00    0.00       15      16
 2015 129    27    26    5.8      0  1.228    336    130      0     84    466    466      0     0.0  0.000      0      0  0.000  0.000  0.000  0.000  0.000  0.000  0.000    3.43   0.00   0.00      0      0  365.1   0.25   0.25   10.4   0.50    0.28    0.23    0.16    0.07    0.02    0.00    0.00    0.00    0.00       15      18
 2015 130    28    27    5.9      0  1.282    359    142      0    112    500    500      0     0.0  0.000      0      0  0.147  0.432  0.000  0.000  0.000  0.000  0.000    3.62   0.00   0.00      0      0  357.1   0.26   0.26   10.5   0.50    0.36    0.30    0.21    0.09    0.03    0.00    0.00    0.00    0.00       15      19
 2015 131    29    28    6.1      1  1.362    370    152      0    114    522    522      0     0.0  0.000      0      0  0.000  0.000  0.000  0.000  0.000  0.000  0.036    3.64   0.00   0.00      0      0  368.0   0.28   0.27   12.2   0.50    0.37    0.30    0.22    0.10    0.03    0.00    0.00    0.00    0.00       33      22
 2015 132    30    29    6.4      1  1.476    398    175      0    119    574    574      0     0.0  0.000      0      0  0.000  0.000  0.000  0.000  0.000  0.000  0.000    3.65   0.00   0.00      0      0  370.6   0.30   0.28   12.7   0.50    0.39    0.31    0.23    0.10    0.03    0.00    0.00    0.00    0.00       43      23
 2015 133    31    30    6.6      1  1.567    429    205      0    125    634    634      0     0.0  0.000      0      0  0.000  0.000  0.000  0.000  0.000  0.000  0.000    3.68   0.00   0.00      0      0  365.0   0.32   0.30   13.2   0.50    0.40    0.33    0.24    0.11    0.03    0.00    0.00    0.00    0.00       56      25
 2015 134    32    31    6.8      1  1.575    447    235      0    144    682    682      0     0.0  0.000      0      0  0.000  0.000  0.158  0.000  0.000  0.000  0.000    3.57   0.00   0.00      0      0  352.4   0.34   0.31   15.4   0.50    0.47    0.38    0.28    0.13    0.04    0.00    0.00    0.00    0.00       85      28
 2015 135    33    32    7.1      1  1.645    485    277      0    156    762    762      0     0.0  0.000      0      0  0.000  0.000  0.058  0.000  0.000  0.000  0.000    3.44   0.00   0.00      0      0  339.2   0.36   0.33   18.0   0.50    0.50    0.41    0.30    0.14    0.04    0.00    0.00    0.00    0.00       89      30
 2015 136    34    33    7.3      1  1.667    508    314      0    161    823    823      0     0.0  0.000      0      0  0.000  0.000  0.000  0.000  0.000  0.000  0.000    3.48   0.00   0.00      0      0  327.9   0.38   0.34   18.6   0.50    0.52    0.42    0.31    0.14    0.05    0.00    0.00    0.00    0.00      106      33
 2015 137    35    34    7.5      1  1.685    538    363      0    168    901    901      0     0.0  0.000      0      0  0.000  0.000  0.000  0.000  0.000  0.000  0.000    3.62   0.00   0.00      0      0  313.1   0.40   0.36   18.9   0.50    0.54    0.44    0.32    0.15    0.05    0.00    0.00    0.00    0.00      123      36
 2015 138    36    35    7.8      1  1.663    553    407      0    173    960    960      0     0.0  0.000      0      0  0.000  0.000  0.000  0.000  0.000  0.000  0.000    3.83   0.00   0.00      0      0  300.8   0.42   0.37   19.0   0.50    0.56    0.45    0.33    0.15    0.05    0.00    0.00    0.00    0.00      153      39
 2015 139    37    36    8.1      1  1.598    560    461      0    178   1021   1021      0     0.0  0.000      0      0  0.000  0.000  0.000  0.000  0.000  0.000  0.000    3.88   0.00   0.00      0      0  285.4   0.45   0.39   19.8   0.50    0.57    0.46    0.34    0.16    0.05    0.00    0.00    0.00    0.00      189      43
 2015 140    38    37    8.3      1  1.601    591    525      0    184   1115   1115      0     0.0  0.000      0      0  0.000  0.000  0.000  0.000  0.000  0.000  0.000    3.85   0.00   0.00      0      0  270.8   0.47   0.41   20.1   0.50    0.59    0.48    0.35    0.16    0.05    0.00    0.00    0.00    0.00      192      46
 2015 141    39    38    8.6      1  1.589    615    586      0    189   1201   1201      0     0.0  0.000      0      0  0.000  0.000  0.000  0.000  0.000  0.000  0.000    3.88   0.00   0.00      0      0  258.3   0.50   0.42   20.4   0.50    0.61    0.49    0.36    0.17    0.05    0.00    0.00    0.00    0.00      201      50
 2015 142    40    39    8.9      1  1.547    632    653      0    194   1285   1285      0     0.0  0.000      0      0  0.000  0.000  0.000  0.000  0.000  0.000  0.000    3.86   0.00   0.00      0      0  244.8   0.52   0.44   23.9   0.50    0.63    0.50    0.37    0.18    0.06    0.00    0.00    0.00    0.00      219      53
 2015 143    41    40    9.1      5  1.546    660    719      0    199   1379   1379      0     0.0  0.000      0      0  0.000  0.000  0.000  0.000  0.000  0.000  0.000    3.88   0.00   0.00      0      0  234.2   0.55   0.45   23.0   0.50    0.64    0.52    0.38    0.18    0.06    0.00    0.00    0.00    0.00      222      58
 2015 144    42    41    9.4      5  1.534    680    777      0    203   1458   1462     53     0.0  0.000      4     11  0.000  0.000  0.000  0.000  0.000  0.000  0.000    3.93   0.00   0.00      0      4  225.4   0.58   0.45   22.0   0.50    0.65    0.53    0.39    0.18    0.06    0.00    0.00    0.00    0.00      233      63
 2015 145    43    42    9.7      5  1.516    696    830      5    206   1525   1549    174     2.9  0.003     24     38  0.000  0.000  0.000  0.000  0.000  0.000  0.000    4.00  21.10   0.02      0     24  217.9   0.61   0.45   21.2   0.50    0.66    0.53    0.39    0.19    0.06    0.00    0.00    0.00    0.00      246      68
 2015 146    44    43    9.7      5  1.475    699    874     22    215   1573   1639    309     7.0  0.013     66     67  0.000  0.091  0.000  0.000  0.000  0.000  0.000    3.95  32.83   0.04      0     66  211.0   0.64   0.45   24.5   0.50    0.69    0.56    0.41    0.20    0.06    0.00    0.00    0.00    0.00      265      72
 2015 147    45    44    9.7      5  1.452    700    897     51    214   1597   1732    479    10.7  0.030    135    103  0.000  0.000  0.000  0.000  0.000  0.000  0.000    3.92  37.94   0.08      0    135  207.4   0.67   0.45   23.5   0.50    0.69    0.56    0.41    0.20    0.06    0.00    0.00    0.00    0.00      275      78
 2015 148    46    45    9.7      5  1.456    701    895     93    211   1595   1818    611    15.2  0.051    223    132  0.000  0.000  0.000  0.000  0.000  0.000  0.000    3.96  41.70   0.12      0    223  207.9   0.70   0.45   22.6   0.50    0.68    0.55    0.41    0.19    0.06    0.00    0.00    0.00    0.00      277      82
 2015 149    47    46    9.7      5  1.440    690    885    144    208   1575   1898    696    20.6  0.076    323    150  0.000  0.000  0.000  0.000  0.000  0.000  0.000    3.95  44.52   0.17      0    323  208.7   0.72   0.45   21.7   0.50    0.67    0.54    0.40    0.19    0.06    0.00    0.00    0.00    0.00      285      86
 2015 150    48    47    9.7      5  1.417    676    873    202    204   1549   1980    698    29.0  0.102    431    150  0.000  0.000  0.000  0.000  0.000  0.000  0.000    3.92  46.93   0.22      0    431  209.5   0.72   0.45   20.8   0.50    0.66    0.53    0.39    0.19    0.06    0.00    0.00    0.00    0.00      294      91
 2015 151    49    48    9.7      5  1.394    662    861    262    201   1524   2064    698    37.5  0.127    540    150  0.000  0.280  0.000  0.000  0.000  0.000  0.000    3.90  48.42   0.26      0    540  210.4   0.72   0.45   20.0   0.50    0.65    0.52    0.39    0.18    0.06    0.00    0.00    0.00    0.00      304      95
 2015 152    50    49    9.7      5  1.364    647    851    322    197   1498   2133    698    46.1  0.151    636    150  0.141  0.427  0.000  0.000  0.000  0.000  0.000    3.85  50.65   0.30      0    636  211.0   0.72   0.45   19.9   0.50    0.64    0.51    0.38    0.18    0.06    0.00    0.00    0.00    0.00      315      99
 2015 153    51    50    9.7      5  1.333    628    836    387    192   1465   2214    698    55.5  0.175    749    150  0.000  0.000  0.000  0.000  0.000  0.000  0.000    3.81  51.63   0.34      0    749  212.1   0.72   0.45   19.9   0.50    0.63    0.50    0.37    0.18    0.06    0.00    0.00    0.00    0.00      327     102
 2015 154    52    51    9.7      5  1.302    611    822    452    188   1433   2291    698    64.8  0.197    859    150  0.000  0.000  0.000  0.000  0.000  0.000  0.000    3.76  52.60   0.37      0    859  213.2   0.72   0.45   19.1   0.50    0.61    0.49    0.37    0.17    0.06    0.00    0.00    0.00    0.00      339     107
 2015 155    53    52    9.7      5  1.272    594    808    516    184   1402   2368    787    65.6  0.218    966    170  0.000  0.000  0.000  0.000  0.000  0.000  0.000    3.71  53.43   0.41      0    966  214.3   0.72   0.45   18.4   0.50    0.60    0.48    0.36    0.17    0.06    0.00    0.00    0.00    0.00      353     111
 2015 156    54    53    9.7      5  1.216    571    812    589    181   1383   2441    787    74.9  0.241   1059    170  0.000  0.185  0.000  0.000  0.000  0.000  0.000    3.62  55.63   0.43      0   1059  213.1   0.72   0.45   19.8   0.50    0.59    0.48    0.35    0.17    0.05    0.00    0.00    0.00    0.00      380     114
 2015 157    55    54    9.7      5  1.187    555    799    660    177   1353   2515    921    71.7  0.263   1161    198  0.000  0.000  0.000  0.000  0.000  0.000  0.000    3.57  56.86   0.46      0   1161  214.1   0.72   0.45   19.8   0.50    0.58    0.47    0.35    0.17    0.05    0.00    0.00    0.00    0.00      392     118
 2015 158    56    55    9.7      5  1.159    538    784    746    173   1322   2590    921    81.0  0.288   1268    198  0.000  0.000  0.000  0.000  0.000  0.000  0.000    3.51  58.86   0.49      0   1268  215.4   0.72   0.45   19.8   0.50    0.57    0.46    0.34    0.16    0.05    0.00    0.00    0.00    0.00      403     121
 2015 159    57    56    9.7      5  1.132    522    771    830    170   1293   2661    992    83.7  0.312   1368    214  0.000  0.000  0.000  0.000  0.000  0.000  0.000    3.46  60.65   0.51      0   1368  216.7   0.72   0.45   19.2   0.50    0.56    0.45    0.33    0.16    0.05    0.00    0.00    0.00    0.00      414     125
 2015 160    58    57    9.7      5  1.105    513    780    918    167   1293   2747    992    92.6  0.334   1453    214  0.000  0.133  0.000  0.000  0.000  0.000  0.000    3.36  63.18   0.53      0   1453  215.3   0.72   0.45   20.1   0.50    0.55    0.44    0.33    0.16    0.05    0.00    0.00    0.00    0.00      424     128
 2015 161    59    58    9.7      5  1.079    498    766   1009    163   1263   2806    992   101.7  0.360   1543    214  0.000  0.000  0.000  0.000  0.000  0.000  0.000    3.30  65.41   0.55      0   1543  216.8   0.72   0.45   20.1   0.50    0.54    0.43    0.32    0.15    0.05    0.00    0.00    0.00    0.00      434     131
 2015 162    60    59    9.7      5  1.052    482    751   1094    160   1233   2874    992   110.3  0.381   1641    214  0.000  0.000  0.000  0.000  0.000  0.000  0.000    3.24  66.69   0.57      0   1641  218.3   0.72   0.45   20.1   0.50    0.53    0.43    0.32    0.15    0.05    0.00    0.00    0.00    0.00      445     134
 2015 163    61    60    9.7      5  1.024    471    754   1181    157   1224   2948    992   119.0  0.400   1723    214  0.000  0.000  0.000  0.000  0.000  0.000  0.000    3.14  68.50   0.58      0   1723  217.5   0.72   0.45   20.6   0.50    0.52    0.42    0.31    0.15    0.05    0.00    0.00    0.00    0.00      455     137
 2015 164    62    61    9.7      5  0.998    457    745   1264    153   1203   3017    992   127.4  0.419   1814    214  0.000  0.000  0.000  0.000  0.000  0.000  0.000    3.05  69.71   0.60      0   1814  218.2   0.72   0.45   20.9   0.50    0.51    0.41    0.30    0.15    0.05    0.00    0.00    0.00    0.00      465     140
 2015 165    63    62    9.7      5  0.973    442    731   1348    150   1174   3079    992   135.8  0.438   1905    214  0.000  0.000  0.000  0.000  0.000  0.000  0.000    2.98  70.75   0.62      0   1905  219.9   0.72   0.45   20.9   0.50    0.50    0.40    0.30    0.14    0.05    0.00    0.00    0.00    0.00      474     142
 2015 166    64    63    9.7      7  0.946    431    731   1436    147   1163   3152    992   144.7  0.456   1989    214  0.000  0.000  0.000  0.000  0.000  0.000  0.000    2.88  72.17   0.63      0   1989  219.4   0.72   0.45   20.9   0.50    0.49    0.40    0.29    0.14    0.05    0.00    0.00    0.00    0.00      484     145
 2015 167    65    64    9.7      7  0.701    322    708   1511    144   1030   3091    992   152.3  0.489   2061    214  0.000  0.000  0.072  0.000  0.000  0.000  0.000    2.70  73.31   0.67      0   2061  218.1   0.72   0.45   20.9   0.50    0.48    0.39    0.29    0.14    0.04    0.00    0.00    0.00    0.00      624     148
 2015 168    66    65    9.7      7  0.520    236    674   1583    141    910   3038    992   159.5  0.521   2128    214  0.000  0.000  0.000  0.000  0.000  0.000  0.000    2.56  74.36   0.70      0   2128  220.2   0.72   0.45   20.9   0.50    0.47    0.38    0.28    0.13    0.04    0.00    0.00    0.00    0.00      729     151
 2015 169    67    66    9.7      7  0.386    173    646   1641    139    819   3001    992   165.4  0.547   2182    214  0.000  0.000  0.000  0.000  0.000  0.000  0.000    2.44  75.20   0.73      0   2182  222.5   0.72   0.45   20.9   0.50    0.47    0.37    0.28    0.13    0.04    0.00    0.00    0.00    0.00      805     153
 2015 170    68    67    9.7      7  0.286    127    623   1685    136    751   2973    992   169.9  0.567   2223    214  0.000  0.000  0.000  0.000  0.000  0.000  0.000    2.34  75.83   0.75      0   2223  224.8   0.72   0.45   20.1   0.50    0.46    0.37    0.27    0.13    0.04    0.00    0.00    0.00    0.00      862     157
 2015 171    69    68    9.7      7  0.213     94    606   1716    134    700   2950    992   173.0  0.582   2250    214  0.000  0.000  0.000  0.000  0.000  0.000  0.000    2.25  76.27   0.76      0   2250  226.8   0.72   0.45   19.3   0.50    0.45    0.36    0.27    0.13    0.04    0.00    0.00    0.00    0.00      903     159
 2015 172    70    69    9.7      7  0.159     69    591   1741    131    661   2932    992   175.4  0.594   2271    214  0.000  0.000  0.000  0.000  0.000  0.000  0.000    2.17  76.64   0.77      0   2271  228.8   0.72   0.45   18.5   0.50    0.44    0.36    0.26    0.13    0.04    0.00    0.00    0.00    0.00      934     162
 2015 173    71    70    9.7      7  0.118     51    579   1759    129    630   2917    992   177.3  0.603   2286    214  0.000  0.000  0.000  0.000  0.000  0.000  0.000    2.09  76.92   0.78      0   2286  230.6   0.72   0.45   17.7   0.50    0.44    0.35    0.26    0.12    0.04    0.00    0.00    0.00    0.00      956     165
 2015 174    72    71    9.7      7  0.088     38    569   1772    127    607   2904    992   178.6  0.610   2298    214  0.000  0.000  0.000  0.000  0.000  0.000  0.000    2.03  77.14   0.79      0   2298  232.5   0.72   0.45   17.0   0.50    0.43    0.34    0.26    0.12    0.04    0.00    0.00    0.00    0.00      973     168
 2015 175    73    72    9.7      8  0.066     28    560   1781    125    588   2893    992   179.5  0.616   2304    214  0.000  0.000  0.000  0.000  0.000  0.000  0.000    1.99  77.28   0.80      0   2304  234.2   0.72   0.45   16.4   0.50    0.42    0.34    0.25    0.12    0.04    0.00    0.00    0.00    0.00      985     171

*DSSAT Cropping System Model Ver. 4.7.5.007 -  JAN 21, 2026 10:11:01
!                                                                                                                                                                                                                                                    Root Dens. (cm/cm3) by soil depth (cm):
!                                                                                                                                                                                                                                                   0-10   10-20   20-30   30-40   40-50   50-60   60-70   70-80   80-90
@YEAR DOY   DAS   DAP   L#SD   GSTD   LAID   LWAD   SWAD   GWAD   RWAD   VWAD   CWAD   G#AD    GWGD   HIAD   PWAD   P#AD   WSPD   WSGD   NSTD  PST1A  PST2A   KSTD   EWSD    LN%D   SH%D   HIPD   PWDD   PWTD   SLAD   CHTD   CWID   NWAD   RDPD    RL1D    RL2D    RL3D    RL4D    RL5D    RL6D    RL7D    RL8D    RL9D    SNW0C   SNW1C
 2015 126     1     0    0.0      0  0.000      0      0      0      0      0      0      0     0.0  0.000      0      0  0.000  0.000  0.000  0.000  0.000  0.000  0.000    0.00   0.00   0.00      0      0    0.0   0.00   0.00    0.0   0.00    0.00    0.00    0.00    0.00    0.00    0.00    0.00    0.00    0.00        0       0
 2015 127     2     1    0.0      0  0.000      0      0      0      0      0      0      0     0.0  0.000      0      0  0.000  0.000  0.000  0.000  0.000  0.000  0.000    0.00   0.00   0.00      0      0    0.0   0.00   0.00    0.0   0.00    0.00    0.00    0.00    0.00    0.00    0.00    0.00    0.00    0.00        0       0
 2015 128     3     2    0.0      0  0.000      0      0      0      0      0      0      0     0.0  0.000      0      0  0.000  0.000  0.000  0.000  0.000  0.000  0.000    0.00   0.00   0.00      0      0    0.0   0.00   0.00    0.0   0.00    0.00    0.00    0.00    0.00    0.00    0.00    0.00    0.00    0.00        0       0
 2015 129     4     3    0.0      0  0.000      0      0      0      0      0      0      0     0.0  0.000      0      0  0.000  0.000  0.000  0.000  0.000  0.000  0.000    0.00   0.00   0.00      0      0    0.0   0.00   0.00    0.0   0.00    0.00    0.00    0.00    0.00    0.00    0.00    0.00    0.00    0.00        0       0
 2015 130     5     4    0.1      0  0.028     13      6      0     18     19     19      0     0.0  0.000      0      0  0.000  0.000  0.000  0.000  0.000  0.000  0.011    3.84   0.00   0.00      0      0  213.7   0.04   0.03    4.5   0.27    0.07    0.07    0.03    0.00    0.00    0.00    0.00    0.00    0.00        0       1
 2015 131     6     5    0.3      0  0.033     14      6      0     18     20     20      0     0.0  0.000      0      0  0.000  0.000  0.000  0.000  0.000  0.000  0.047    3.85   0.00   0.00      0      0  235.9   0.05   0.03    4.3   0.28    0.07    0.07    0.03    0.00    0.00    0.00    0.00    0.00    0.00        0       1
 2015 132     7     6    0.5      0  0.042     16      6      0     19     22     22      0     0.0  0.000      0      0  0.000  0.000  0.000  0.000  0.000  0.000  0.000    3.85   0.00   0.00      0      0  261.8   0.06   0.03    4.2   0.30    0.07    0.07    0.03    0.00    0.00    0.00    0.00    0.00    0.00        0       1
 2015 133     8     7    0.7      0  0.052     18      6      0     19     25     25      0     0.0  0.000      0      0  0.000  0.000  0.000  0.000  0.000  0.000  0.000    3.85   0.00   0.00      0      0  282.7   0.06   0.04    4.1   0.32    0.07    0.07    0.03    0.00    0.00    0.00    0.00    0.00    0.00        0       2
 2015 134     9     8    1.0      0  0.063     21      7      0     20     28     28      0     0.0  0.000      0      0  0.000  0.000  0.000  0.000  0.000  0.000  0.000    3.85   0.00   0.00      0      0  295.5   0.07   0.04    4.0   0.33    0.07    0.07    0.04    0.00    0.00    0.00    0.00    0.00    0.00        0       2
 2015 135    10     9    1.2      0  0.074     24      8      0     21     32     32      0     0.0  0.000      0      0  0.000  0.000  0.000  0.000  0.000  0.000  0.013    3.82   0.00   0.00      0      0  306.4   0.08   0.05    4.1   0.35    0.08    0.07    0.04    0.00    0.00    0.00    0.00    0.00    0.00        0       3
 2015 136    11    10    1.4      0  0.084     27      9      0     22     36     36      0     0.0  0.000      0      0  0.000  0.000  0.000  0.000  0.000  0.000  0.000    3.84   0.00   0.00      0      0  316.1   0.08   0.05    4.1   0.37    0.08    0.08    0.04    0.00    0.00    0.00    0.00    0.00    0.00        0       3
 2015 137    12    11    1.7      0  0.096     30     11      0     23     41     41      0     0.0  0.000      0      0  0.000  0.000  0.000  0.000  0.000  0.000  0.000    3.84   0.00   0.00      0      0  320.5   0.09   0.06    4.1   0.38    0.08    0.08    0.04    0.00    0.00    0.00    0.00    0.00    0.00        0       4
 2015 138    13    12    1.9      0  0.118     36     13      0     24     48     48      0     0.0  0.000      0      0  0.000  0.000  0.000  0.000  0.000  0.000  0.000    3.84   0.00   0.00      0      0  331.1   0.10   0.06    4.1   0.40    0.09    0.08    0.05    0.00    0.00    0.00    0.00    0.00    0.00        0       4
 2015 139    14    13    2.2      0  0.149     42     14      0     25     57     57      0     0.0  0.000      0      0  0.000  0.000  0.000  0.000  0.000  0.000  0.000    3.81   0.00   0.00      0      0  351.3   0.11   0.07    4.1   0.42    0.09    0.08    0.05    0.01    0.00    0.00    0.00    0.00    0.00        1       5
 2015 140    15    14    2.5      0  0.181     50     16      0     26     67     67      0     0.0  0.000      0      0  0.000  0.000  0.000  0.000  0.000  0.000  0.000    3.79   0.00   0.00      0      0  358.9   0.11   0.08    4.2   0.44    0.09    0.08    0.05    0.01    0.00    0.00    0.00    0.00    0.00        1       5
 2015 141    16    15    2.7      0  0.215     60     19      0     27     79     79      0     0.0  0.000      0      0  0.000  0.000  0.000  0.000  0.000  0.000  0.000    3.84   0.00   0.00      0      0  359.7   0.12   0.08    4.2   0.46    0.10    0.09    0.05    0.01    0.00    0.00    0.00    0.00    0.00        1       6
 2015 142    17    16    3.0      0  0.262     72     22      0     28     94     94      0     0.0  0.000      0      0  0.000  0.000  0.000  0.000  0.000  0.000  0.000    3.61   0.00   0.00      0      0  365.8   0.13   0.09    4.9   0.48    0.10    0.09    0.05    0.01    0.00    0.00    0.00    0.00    0.00        2       6
 2015 143    18    17    3.3      0  0.320     84     26      0     29    110    110      0     0.0  0.000      0      0  0.000  0.000  0.000  0.000  0.000  0.000  0.000    3.62   0.00   0.00      0      0  378.8   0.13   0.10    5.0   0.50    0.10    0.09    0.06    0.01    0.00    0.00    0.00    0.00    0.00        3       7
 2015 144    19    18    3.5      0  0.375     99     30      0     33    130    130      0     0.0  0.000      0      0  0.000  0.084  0.000  0.000  0.000  0.000  0.000    3.68   0.00   0.00      0      0  377.6   0.14   0.11    5.0   0.52    0.11    0.10    0.06    0.02    0.00    0.00    0.00    0.00    0.00        3       7
 2015 145    20    19    3.7      0  0.392    107     33      0     42    139    139      0     0.0  0.000      0      0  0.201  0.467  0.000  0.000  0.000  0.000  0.000    3.78   0.00   0.00      0      0  367.3   0.15   0.12    4.9   0.52    0.14    0.12    0.08    0.02    0.01    0.00    0.00    0.00    0.00        3       8
 2015 146    21    20    3.8      0  0.400    111     34      0     51    145    145      0     0.0  0.000      0      0  0.402  0.602  0.000  0.000  0.000  0.000  0.000    3.81   0.00   0.00      0      0  359.2   0.15   0.12    4.8   0.52    0.17    0.15    0.10    0.03    0.01    0.00    0.00    0.00    0.00        3       9
 2015 147    22    21    4.0      0  0.435    125     37      0     62    162    162      0     0.0  0.000      0      0  0.035  0.357  0.000  0.000  0.000  0.000  0.000    3.70   0.00   0.00      0      0  348.7   0.15   0.13    5.4   0.52    0.21    0.18    0.12    0.04    0.01    0.00    0.00    0.00    0.00        5      10
 2015 148    23    22    4.2      0  0.502    144     42      0     63    187    187      0     0.0  0.000      0      0  0.000  0.000  0.000  0.000  0.000  0.000  0.000    3.81   0.00   0.00      0      0  347.7   0.16   0.14    5.3   0.52    0.21    0.18    0.12    0.05    0.01    0.00    0.00    0.00    0.00        5      11
 2015 149    24    23    4.4      0  0.558    163     48      0     65    211    211      0     0.0  0.000      0      0  0.000  0.000  0.000  0.000  0.000  0.000  0.000    3.63   0.00   0.00      0      0  342.1   0.17   0.15    6.2   0.52    0.22    0.18    0.12    0.05    0.01    0.00    0.00    0.00    0.00       12      12
 2015 150    25    24    4.7      0  0.604    179     52      0     66    231    231      0     0.0  0.000      0      0  0.000  0.000  0.000  0.000  0.000  0.000  0.000    3.67   0.00   0.00      0      0  337.1   0.18   0.17    6.2   0.52    0.22    0.19    0.13    0.05    0.01    0.00    0.00    0.00    0.00       25      14
 2015 151    26    25    4.9      0  0.692    206     59      0     68    265    265      0     0.0  0.000      0      0  0.000  0.000  0.000  0.000  0.000  0.000  0.000    3.80   0.00   0.00      0      0  335.5   0.19   0.18    6.2   0.52    0.23    0.19    0.13    0.05    0.02    0.00    0.00    0.00    0.00       26      15
 2015 152    27    26    5.1      0  0.768    231     72      0     77    304    304      0     0.0  0.000      0      0  0.000  0.107  0.000  0.000  0.000  0.000  0.000    3.68   0.00   0.00      0      0  332.0   0.20   0.19    7.3   0.52    0.25    0.21    0.15    0.06    0.02    0.00    0.00    0.00    0.00       28      16
 2015 153    28    27    5.4      0  0.893    264     90      0     81    353    353      0     0.0  0.000      0      0  0.000  0.000  0.000  0.000  0.000  0.000  0.000    3.69   0.00   0.00      0      0  338.6   0.21   0.21    7.5   0.52    0.27    0.22    0.16    0.06    0.02    0.00    0.00    0.00    0.00       29      18
 2015 154    29    28    5.6      0  1.023    297    107      0     85    404    404      0     0.0  0.000      0      0  0.000  0.000  0.000  0.000  0.000  0.000  0.000    3.80   0.00   0.00      0      0  344.1   0.23   0.23    7.7   0.52    0.28    0.23    0.16    0.07    0.02    0.00    0.00    0.00    0.00       29      19
 2015 155    30    29    5.8      1  1.066    317    118      0    110    436    436      0     0.0  0.000      0      0  0.100  0.400  0.000  0.000  0.000  0.000  0.000    3.82   0.00   0.00      0      0  335.8   0.24   0.24    7.8   0.52    0.36    0.30    0.21    0.09    0.03    0.00    0.00    0.00    0.00       29      21
 2015 156    31    30    5.9      1  1.084    332    129      0    139    461    461      0     0.0  0.000      0      0  0.189  0.459  0.000  0.000  0.000  0.000  0.000    3.78   0.00   0.00      0      0  326.3   0.25   0.24    8.6   0.52    0.45    0.37    0.27    0.12    0.04    0.00    0.00    0.00    0.00       33      23
 2015 157    32    31    6.2      1  1.189    370    155      0    143    525    525      0     0.0  0.000      0      0  0.000  0.000  0.000  0.000  0.000  0.000  0.000    3.80   0.00   0.00      0      0  321.1   0.26   0.25    8.9   0.52    0.47    0.38    0.27    0.12    0.04    0.00    0.00    0.00    0.00       33      26
 2015 158    33    32    6.4      1  1.254    401    184      0    148    585    585      0     0.0  0.000      0      0  0.000  0.000  0.000  0.000  0.000  0.000  0.000    3.86   0.00   0.00      0      0  313.1   0.28   0.27    9.3   0.52    0.48    0.39    0.28    0.13    0.04    0.00    0.00    0.00    0.00       45      28
 2015 159    34    33    6.7      1  1.271    421    215      0    153    636    636      0     0.0  0.000      0      0  0.000  0.000  0.000  0.000  0.000  0.000  0.000    3.91   0.00   0.00      0      0  301.9   0.30   0.29    9.8   0.52    0.50    0.41    0.29    0.13    0.04    0.00    0.00    0.00    0.00       69      31
 2015 160    35    34    6.9      1  1.234    429    241      0    182    670    670      0     0.0  0.000      0      0  0.000  0.321  0.000  0.000  0.000  0.000  0.000    3.86   0.00   0.00      0      0  287.5   0.32   0.30   11.0   0.52    0.59    0.48    0.35    0.16    0.05    0.00    0.00    0.00    0.00       95      34
 2015 161    36    35    7.1      1  1.278    459    276      0    185    736    736      0     0.0  0.000      0      0  0.000  0.000  0.000  0.000  0.000  0.000  0.000    3.85   0.00   0.00      0      0  278.2   0.33   0.31   11.3   0.52    0.60    0.49    0.36    0.17    0.05    0.00    0.00    0.00    0.00       95      37
 2015 162    37    36    7.4      1  1.278    482    319      0    189    801    801      0     0.0  0.000      0      0  0.000  0.000  0.000  0.000  0.000  0.000  0.000    3.89   0.00   0.00      0      0  265.2   0.35   0.32   11.8   0.52    0.62    0.50    0.37    0.17    0.06    0.00    0.00    0.00    0.00      110      40
 2015 163    38    37    7.6      1  1.235    493    367      0    194    859    859      0     0.0  0.000      0      0  0.000  0.000  0.000  0.000  0.000  0.000  0.000    3.92   0.00   0.00      0      0  250.8   0.38   0.34   13.8   0.52    0.63    0.51    0.37    0.18    0.06    0.00    0.00    0.00    0.00      139      44
 2015 164    39    38    7.9      1  1.219    510    412      0    197    922    922      0     0.0  0.000      0      0  0.000  0.000  0.000  0.000  0.000  0.000  0.000    3.97   0.00   0.00      0      0  239.2   0.40   0.36   14.2   0.52    0.64    0.52    0.38    0.18    0.06    0.00    0.00    0.00    0.00      153      48
 2015 165    40    39    8.1      1  1.194    524    461      0    200    985    985      0     0.0  0.000      0      0  0.000  0.000  0.000  0.000  0.000  0.000  0.000    4.02   0.00   0.00      0      0  227.7   0.42   0.37   14.5   0.52    0.65    0.53    0.39    0.18    0.06    0.00    0.00    0.00    0.00      168      51
 2015 166    41    40    8.4      1  1.181    543    513      0    204   1056   1056      0     0.0  0.000      0      0  0.000  0.000  0.000  0.000  0.000  0.000  0.000    4.05   0.00   0.00      0      0  217.2   0.45   0.39   14.9   0.52    0.66    0.54    0.39    0.19    0.06    0.00    0.00    0.00    0.00      178      55
 2015 167    42    41    8.7      5  1.148    558    571      0    208   1128   1128      0     0.0  0.000      0      0  0.000  0.000  0.000  0.000  0.000  0.000  0.000    4.02   0.00   0.00      0      0  205.8   0.47   0.40   17.4   0.52    0.68    0.55    0.40    0.19    0.06    0.00    0.00    0.00    0.00      194      59
 2015 168    43    42    8.9      5  1.153    582    619      0    211   1201   1207     70     0.0  0.000      6     15  0.000  0.000  0.000  0.000  0.000  0.000  0.000    4.04   0.00   0.00      0      6  198.2   0.49   0.42   16.7   0.52    0.68    0.55    0.41    0.19    0.06    0.00    0.00    0.00    0.00      195      64
 2015 169    44    43    9.2      5  1.141    592    656      6    212   1249   1274    165     3.9  0.005     25     36  0.000  0.000  0.000  0.000  0.000  0.000  0.000    4.10  25.48   0.02      0     25  192.6   0.52   0.43   16.1   0.52    0.69    0.56    0.41    0.19    0.06    0.00    0.00    0.00    0.00      206      68
 2015 170    45    44    9.2      5  1.114    596    691     22    213   1287   1348    260     8.4  0.016     61     56  0.000  0.000  0.000  0.000  0.000  0.000  0.000    4.06  35.40   0.05      0     61  186.8   0.55   0.45   18.7   0.52    0.69    0.56    0.41    0.20    0.06    0.00    0.00    0.00    0.00      221      72
 2015 171    46    45    9.2      5  1.103    599    708     44    213   1307   1419    371    12.0  0.031    112     80  0.000  0.000  0.000  0.000  0.000  0.000  0.000    4.05  39.65   0.08      0    112  184.2   0.57   0.45   17.9   0.52    0.69    0.56    0.41    0.20    0.06    0.00    0.00    0.00    0.00      228      76
 2015 172    47    46    9.2      5  1.102    601    713     78    210   1314   1496    460    17.0  0.052    182     99  0.000  0.000  0.000  0.000  0.000  0.000  0.000    4.08  42.94   0.12      0    182  183.6   0.59   0.45   17.2   0.52    0.68    0.55    0.41    0.19    0.06    0.00    0.00    0.00    0.00      230      80
 2015 173    48    47    9.2      5  1.094    595    709    119    207   1303   1568    550    21.6  0.076    264    119  0.000  0.000  0.000  0.000  0.000  0.000  0.000    4.09  44.93   0.17      0    264  183.9   0.61   0.45   16.5   0.52    0.67    0.54    0.40    0.19    0.06    0.00    0.00    0.00    0.00      235      85
 2015 174    49    48    9.2      5  1.073    589    725    169    203   1314   1654    550    30.7  0.102    339    119  0.000  0.000  0.000  0.000  0.000  0.000  0.000    4.00  49.82   0.21      0    339  182.1   0.61   0.45   18.7   0.52    0.66    0.53    0.39    0.19    0.06    0.00    0.00    0.00    0.00      244      88
 2015 175    50    49    9.2      5  1.053    576    714    218    200   1290   1715    550    39.6  0.127    426    119  0.000  0.000  0.000  0.000  0.000  0.000  0.000    3.96  51.18   0.25      0    426  182.9   0.61   0.45   18.7   0.52    0.65    0.53    0.39    0.18    0.06    0.00    0.00    0.00    0.00      254      91
 2015 176    51    50    9.2      5  1.033    562    703    266    196   1265   1781    605    44.0  0.149    516    130  0.000  0.000  0.000  0.000  0.000  0.000  0.000    3.93  51.53   0.29      0    516  183.8   0.61   0.45   18.7   0.52    0.64    0.52    0.38    0.18    0.06    0.00    0.00    0.00    0.00      264      95
 2015 177    52    51    9.2      5  1.013    550    697    318    193   1248   1846    605    52.6  0.172    598    130  0.000  0.000  0.000  0.000  0.000  0.000  0.000    3.88  53.24   0.32      0    598  184.0   0.61   0.45   20.7   0.52    0.63    0.51    0.38    0.18    0.06    0.00    0.00    0.00    0.00      273      98
 2015 178    53    52    9.2      5  0.994    538    687    368    190   1224   1906    605    60.8  0.193    682    130  0.000  0.000  0.000  0.000  0.000  0.000  0.000    3.85  53.98   0.36      0    682  184.9   0.61   0.45   20.7   0.52    0.62    0.50    0.37    0.18    0.06    0.00    0.00    0.00    0.00      282     100
 2015 179    54    53    9.2      5  0.975    525    676    416    186   1201   1963    671    61.9  0.212    763    145  0.000  0.000  0.000  0.000  0.000  0.000  0.000    3.81  54.53   0.39      0    763  185.8   0.61   0.45   20.7   0.52    0.61    0.50    0.36    0.17    0.06    0.00    0.00    0.00    0.00      291     103
 2015 180    55    54    9.2      5  0.954    511    665    475    183   1176   2027    671    70.7  0.234    851    145  0.000  0.000  0.000  0.000  0.000  0.000  0.000    3.77  55.78   0.42      0    851  186.7   0.61   0.45   20.7   0.52    0.60    0.49    0.36    0.17    0.06    0.00    0.00    0.00    0.00      300     106
 2015 181    56    55    9.2      5  0.933    501    665    533    180   1166   2095    671    79.4  0.254    929    145  0.000  0.000  0.000  0.000  0.000  0.000  0.000    3.70  57.36   0.44      0    929  186.3   0.61   0.45   22.4   0.52    0.59    0.48    0.35    0.17    0.05    0.00    0.00    0.00    0.00      309     109
 2015 182    57    56    9.2      5  0.912    488    655    586    177   1142   2151    759    77.2  0.272   1008    164  0.000  0.000  0.000  0.000  0.000  0.000  0.000    3.65  58.11   0.47      0   1008  187.1   0.61   0.45   22.4   0.52    0.58    0.47    0.35    0.17    0.05    0.00    0.00    0.00    0.00      320     112
 2015 183    58    57    9.2      5  0.891    473    643    654    173   1116   2211    759    86.1  0.296   1095    164  0.000  0.000  0.000  0.000  0.000  0.000  0.000    3.60  59.72   0.50      0   1095  188.3   0.61   0.45   22.4   0.52    0.57    0.46    0.34    0.16    0.05    0.00    0.00    0.00    0.00      329     115
 2015 184    59    58    9.2      5  0.870    459    631    721    170   1091   2270    828    87.1  0.318   1179    178  0.000  0.000  0.000  0.000  0.000  0.000  0.000    3.55  61.17   0.52      0   1179  189.4   0.61   0.45   23.4   0.52    0.56    0.46    0.34    0.16    0.05    0.00    0.00    0.00    0.00      339     118
 2015 185    60    59    9.2      5  0.850    446    620    793    167   1067   2329    828    95.8  0.341   1262    178  0.000  0.000  0.000  0.000  0.000  0.000  0.000    3.50  62.83   0.54      0   1262  190.6   0.61   0.45   23.4   0.52    0.55    0.45    0.33    0.16    0.05    0.00    0.00    0.00    0.00      347     121
 2015 186    61    60    9.2      5  0.832    434    610    862    164   1044   2381    828   104.2  0.362   1337    178  0.000  0.000  0.000  0.000  0.000  0.000  0.000    3.45  64.49   0.56      0   1337  191.8   0.61   0.45   23.2   0.52    0.55    0.44    0.32    0.15    0.05    0.00    0.00    0.00    0.00      355     124
 2015 187    62    61    9.2      5  0.814    422    600    930    161   1021   2427    828   112.4  0.383   1405    178  0.000  0.000  0.000  0.000  0.000  0.000  0.000    3.40  66.21   0.58      0   1405  193.0   0.61   0.45   23.2   0.52    0.54    0.43    0.32    0.15    0.05    0.00    0.00    0.00    0.00      363     126
 2015 188    63    62    9.2      5  0.796    410    590    983    158   1000   2454    828   118.8  0.401   1455    178  0.000  0.000  0.000  0.000  0.000  0.000  0.000    3.35  67.60   0.59      0   1455  194.1   0.61   0.45   22.3   0.52    0.53    0.43    0.31    0.15    0.05    0.00    0.00    0.00    0.00      370     130
 2015 189    64    63    9.2      5  0.782    401    582   1012    156    982   2463    828   122.3  0.411   1480    178  0.000  0.000  0.000  0.000  0.000  0.000  0.000    3.31  68.37   0.60      0   1480  195.2   0.61   0.45   21.4   0.52    0.52    0.42    0.31    0.15    0.05    0.00    0.00    0.00    0.00      376     133
 2015 190    65    64    9.2      5  0.764    389    572   1078    154    961   2510    828   130.2  0.430   1549    178  0.000  0.000  0.000  0.000  0.000  0.000  0.000    3.25  69.60   0.62      0   1549  196.5   0.61   0.45   20.5   0.52    0.51    0.42    0.31    0.15    0.05    0.00    0.00    0.00    0.00      384     136
 2015 191    66    65    9.2      5  0.745    377    563   1144    151    940   2563    828   138.2  0.446   1623    178  0.000  0.000  0.000  0.000  0.000  0.000  0.000    3.19  70.50   0.63      0   1623  197.6   0.61   0.45   20.5   0.52    0.51    0.41    0.30    0.14    0.05    0.00    0.00    0.00    0.00      392     138
 2015 192    67    66    9.2      5  0.726    365    553   1217    148    918   2617    828   147.1  0.465   1699    178  0.000  0.000  0.000  0.000  0.000  0.000  0.000    3.11  71.67   0.65      0   1699  198.9   0.61   0.45   20.5   0.52    0.50    0.40    0.30    0.14    0.05    0.00    0.00    0.00    0.00      400     141
 2015 193    68    67    9.2      7  0.707    355    549   1289    145    904   2671    828   155.7  0.483   1767    178  0.000  0.000  0.000  0.000  0.000  0.000  0.000    3.03  72.95   0.66      0   1767  199.2   0.61   0.45   20.5   0.52    0.49    0.39    0.29    0.14    0.05    0.00    0.00    0.00    0.00      407     144
 2015 194    69    68    9.2      7  0.524    266    541   1345    143    807   2627    828   162.5  0.512   1820    178  0.000  0.000  0.251  0.000  0.000  0.000  0.000    2.83  73.89   0.69      0   1820  196.6   0.61   0.45   20.5   0.52    0.48    0.39    0.29    0.14    0.04    0.00    0.00    0.00    0.00      523     146
 2015 195    70    69    9.2      7  0.388    196    516   1403    140    713   2588    828   169.5  0.542   1875    178  0.000  0.000  0.000  0.000  0.000  0.000  0.000    2.68  74.83   0.72      0   1875  197.6   0.61   0.45   20.5   0.52    0.47    0.38    0.28    0.13    0.04    0.00    0.00    0.00    0.00      609     149
 2015 196    71    70    9.2      7  0.288    144    495   1450    137    639   2558    828   175.2  0.567   1919    178  0.000  0.000  0.000  0.000  0.000  0.000  0.000    2.57  75.58   0.75      0   1919  199.5   0.61   0.45   20.5   0.52    0.46    0.37    0.28    0.13    0.04    0.00    0.00    0.00    0.00      673     151
 2015 197    72    71    9.2      7  0.214    106    477   1486    135    584   2534    828   179.5  0.586   1951    178  0.000  0.000  0.000  0.000  0.000  0.000  0.000    2.46  76.14   0.77      0   1951  201.2   0.61   0.45   20.0   0.52    0.46    0.37    0.27    0.13    0.04    0.00    0.00    0.00    0.00      720     154
 2015 198    73    72    9.2      7  0.159     79    464   1512    133    543   2518    828   182.7  0.601   1975    178  0.000  0.000  0.000  0.000  0.000  0.000  0.000    2.36  76.57   0.78      0   1975  202.7   0.61   0.45   20.0   0.52    0.45    0.36    0.27    0.13    0.04    0.00    0.00    0.00    0.00      755     156
 2015 199    74    73    9.2      7  0.118     58    453   1532    130    511   2503    828   185.0  0.612   1992    178  0.000  0.000  0.000  0.000  0.000  0.000  0.000    2.28  76.90   0.80      0   1992  204.3   0.61   0.45   19.2   0.52    0.44    0.36    0.26    0.13    0.04    0.00    0.00    0.00    0.00      780     159
 2015 200    75    74    9.2      7  0.088     43    444   1547    128    486   2491    828   186.9  0.621   2004    178  0.000  0.000  0.000  0.000  0.000  0.000  0.000    2.19  77.17   0.80      0   2004  205.9   0.61   0.45   18.4   0.52    0.43    0.35    0.26    0.12    0.04    0.00    0.00    0.00    0.00      799     162
 2015 201    76    75    9.2      7  0.066     32    436   1558    126    467   2481    828   188.2  0.628   2014    178  0.000  0.000  0.000  0.000  0.000  0.000  0.000    2.12  77.38   0.81      0   2014  207.5   0.61   0.45   17.7   0.52    0.43    0.34    0.25    0.12    0.04    0.00    0.00    0.00    0.00      813     165
 2015 202    77    76    9.2      8  0.049     24    429   1565    123    453   2471    828   189.0  0.633   2019    178  0.000  0.000  0.000  0.000  0.000  0.000  0.000    2.09  77.51   0.82      0   2019  208.9   0.61   0.45   17.0   0.52    0.42    0.34    0.25    0.12    0.04    0.00    0.00    0.00    0.00      823     168

*DSSAT Cropping System Model Ver. 4.7.5.007 -  JAN 21, 2026 10:11:01
!                                                                                                                                                                                                                                                    Root Dens. (cm/cm3) by soil depth (cm):
!                                                                                                                                                                                                                                                   0-10   10-20   20-30   30-40   40-50   50-60   60-70   70-80   80-90
@YEAR DOY   DAS   DAP   L#SD   GSTD   LAID   LWAD   SWAD   GWAD   RWAD   VWAD   CWAD   G#AD    GWGD   HIAD   PWAD   P#AD   WSPD   WSGD   NSTD  PST1A  PST2A   KSTD   EWSD    LN%D   SH%D   HIPD   PWDD   PWTD   SLAD   CHTD   CWID   NWAD   RDPD    RL1D    RL2D    RL3D    RL4D    RL5D    RL6D    RL7D    RL8D    RL9D    SNW0C   SNW1C
 2015 148     1     0    0.0      0  0.000      0      0      0      0      0      0      0     0.0  0.000      0      0  0.000  0.000  0.000  0.000  0.000  0.000  0.000    0.00   0.00   0.00      0      0    0.0   0.00   0.00    0.0   0.00    0.00    0.00    0.00    0.00    0.00    0.00    0.00    0.00    0.00        0       0
 2015 149     2     1    0.0      0  0.000      0      0      0      0      0      0      0     0.0  0.000      0      0  0.000  0.000  0.000  0.000  0.000  0.000  0.000    0.00   0.00   0.00      0      0    0.0   0.00   0.00    0.0   0.00    0.00    0.00    0.00    0.00    0.00    0.00    0.00    0.00    0.00        0       0
 2015 150     3     2    0.0      0  0.000      0      0      0      0      0      0      0     0.0  0.000      0      0  0.000  0.000  0.000  0.000  0.000  0.000  0.000    0.00   0.00   0.00      0      0    0.0   0.00   0.00    0.0   0.00    0.00    0.00    0.00    0.00    0.00    0.00    0.00    0.00    0.00        0       0
 2015 151     4     3    0.0      0  0.000      0      0      0      0      0      0      0     0.0  0.000      0      0  0.000  0.000  0.000  0.000  0.000  0.000  0.000    0.00   0.00   0.00      0      0    0.0   0.00   0.00    0.0   0.00    0.00    0.00    0.00    0.00    0.00    0.00    0.00    0.00    0.00        0       0
 2015 152     5     4    0.2      0  0.028     13      6      0     18     19     19      0     0.0  0.000      0      0  0.000  0.000  0.000  0.000  0.000  0.000  0.000    3.84   0.00   0.00      0      0  213.6   0.04   0.03    4.5   0.27    0.07    0.07    0.03    0.00    0.00    0.00    0.00    0.00    0.00        0       1
 2015 153     6     5    0.4      0  0.036     15      6      0     19     21     21      0     0.0  0.000      0      0  0.000  0.000  0.000  0.000  0.000  0.000  0.000    3.85   0.00   0.00      0      0  237.3   0.05   0.03    4.4   0.29    0.07    0.07    0.03    0.00    0.00    0.00    0.00    0.00    0.00        0       1
 2015 154     7     6    0.7      0  0.046     18      6      0     19     24     24      0     0.0  0.000      0      0  0.000  0.000  0.000  0.000  0.000  0.000  0.000    3.85   0.00   0.00      0      0  258.9   0.06   0.03    4.3   0.31    0.07    0.07    0.03    0.00    0.00    0.00    0.00    0.00    0.00        0       2
 2015 155     8     7    0.9      0  0.056     21      7      0     20     28     28      0     0.0  0.000      0      0  0.000  0.129  0.107  0.000  0.000  0.000  0.003    3.78   0.00   0.00      0      0  267.1   0.07   0.04    4.2   0.32    0.07    0.07    0.04    0.00    0.00    0.00    0.00    0.00    0.00        0       2
 2015 156     9     8    1.2      0  0.067     24      7      0     21     32     32      0     0.0  0.000      0      0  0.000  0.000  0.000  0.000  0.000  0.000  0.000    3.83   0.00   0.00      0      0  278.9   0.07   0.04    4.1   0.34    0.08    0.07    0.04    0.00    0.00    0.00    0.00    0.00    0.00        0       2
 2015 157    10     9    1.4      0  0.079     27      9      0     22     36     36      0     0.0  0.000      0      0  0.000  0.000  0.000  0.000  0.000  0.000  0.000    3.84   0.00   0.00      0      0  289.3   0.08   0.05    4.1   0.36    0.08    0.08    0.04    0.00    0.00    0.00    0.00    0.00    0.00        0       3
 2015 158    11    10    1.7      0  0.091     31     11      0     24     42     42      0     0.0  0.000      0      0  0.000  0.000  0.000  0.000  0.000  0.000  0.000    3.84   0.00   0.00      0      0  298.3   0.09   0.06    4.1   0.38    0.09    0.08    0.05    0.00    0.00    0.00    0.00    0.00    0.00        0       3
 2015 159    12    11    1.9      0  0.111     36     12      0     24     48     48      0     0.0  0.000      0      0  0.000  0.000  0.000  0.000  0.000  0.000  0.000    3.85   0.00   0.00      0      0  307.8   0.10   0.06    4.1   0.40    0.09    0.08    0.05    0.00    0.00    0.00    0.00    0.00    0.00        0       4
 2015 160    13    12    2.1      0  0.121     40     13      0     28     54     54      0     0.0  0.000      0      0  0.016  0.344  0.000  0.000  0.000  0.000  0.000    3.81   0.00   0.00      0      0  298.5   0.10   0.06    4.1   0.41    0.10    0.09    0.05    0.01    0.00    0.00    0.00    0.00    0.00        0       4
 2015 161    14    13    2.3      0  0.148     47     15      0     29     62     62      0     0.0  0.000      0      0  0.000  0.000  0.000  0.000  0.000  0.000  0.000    3.83   0.00   0.00      0      0  315.3   0.10   0.07    4.1   0.43    0.10    0.09    0.06    0.01    0.00    0.00    0.00    0.00    0.00        0       5
 2015 162    15    14    2.6      0  0.181     56     17      0     30     73     73      0     0.0  0.000      0      0  0.000  0.000  0.000  0.000  0.000  0.000  0.000    3.84   0.00   0.00      0      0  324.2   0.11   0.07    4.1   0.45    0.11    0.10    0.06    0.01    0.00    0.00    0.00    0.00    0.00        0       6
 2015 163    16    15    2.9      0  0.223     66     20      0     31     86     86      0     0.0  0.000      0      0  0.000  0.000  0.000  0.000  0.000  0.000  0.000    3.85   0.00   0.00      0      0  337.6   0.12   0.08    4.0   0.47    0.11    0.10    0.06    0.01    0.00    0.00    0.00    0.00    0.00        0       6
 2015 164    17    16    3.0      0  0.236     72     21      0     37     93     93      0     0.0  0.000      0      0  0.102  0.401  0.000  0.000  0.000  0.000  0.000    3.85   0.00   0.00      0      0  327.3   0.12   0.09    4.0   0.49    0.13    0.11    0.07    0.02    0.00    0.00    0.00    0.00    0.00        1       7
 2015 165    18    17    3.1      0  0.242     76     22      0     44     99     99      0     0.0  0.000      0      0  0.255  0.503  0.000  0.000  0.000  0.000  0.000    3.82   0.00   0.00      0      0  317.2   0.12   0.09    4.1   0.51    0.15    0.13    0.09    0.03    0.01    0.00    0.00    0.00    0.00        1       8
 2015 166    19    18    3.4      0  0.295     90     26      0     45    116    116      0     0.0  0.000      0      0  0.000  0.000  0.000  0.000  0.000  0.000  0.000    3.84   0.00   0.00      0      0  326.3   0.13   0.09    4.1   0.51    0.15    0.13    0.09    0.03    0.01    0.00    0.00    0.00    0.00        1       9
 2015 167    20    19    3.7      0  0.357    106     30      0     46    136    136      0     0.0  0.000      0      0  0.000  0.000  0.000  0.000  0.000  0.000  0.000    3.85   0.00   0.00      0      0  335.5   0.14   0.11    4.1   0.51    0.16    0.14    0.09    0.03    0.01    0.00    0.00    0.00    0.00        1      10
 2015 168    21    20    3.9      0  0.430    123     35      0     47    158    158      0     0.0  0.000      0      0  0.000  0.000  0.000  0.000  0.000  0.000  0.000    3.85   0.00   0.00      0      0  349.3   0.15   0.12    4.1   0.51    0.16    0.14    0.09    0.03    0.01    0.00    0.00    0.00    0.00        4      11
 2015 169    22    21    4.2      0  0.482    138     39      0     52    177    177      0     0.0  0.000      0      0  0.000  0.102  0.000  0.000  0.000  0.000  0.000    3.85   0.00   0.00      0      0  350.4   0.15   0.14    4.1   0.51    0.17    0.15    0.10    0.03    0.01    0.00    0.00    0.00    0.00       10      12
 2015 170    23    22    4.3      0  0.520    153     43      0     63    195    195      0     0.0  0.000      0      0  0.022  0.348  0.000  0.000  0.000  0.000  0.000    3.86   0.00   0.00      0      0  340.9   0.16   0.15    4.2   0.51    0.21    0.18    0.12    0.05    0.01    0.00    0.00    0.00    0.00       10      13
 2015 171    24    23    4.4      0  0.530    159     44      0     74    203    203      0     0.0  0.000      0      0  0.345  0.564  0.000  0.000  0.000  0.000  0.000    3.86   0.00   0.00      0      0  333.6   0.16   0.15    4.1   0.51    0.25    0.21    0.14    0.06    0.02    0.00    0.00    0.00    0.00       10      14
 2015 172    25    24    4.5      0  0.537    164     46      0     85    210    210      0     0.0  0.000      0      0  0.437  0.625  0.000  0.000  0.000  0.000  0.000    3.86   0.00   0.00      0      0  327.5   0.16   0.15    4.0   0.51    0.28    0.23    0.16    0.07    0.02    0.00    0.00    0.00    0.00       10      15
 2015 173    26    25    4.6      0  0.556    175     48      0     98    223    223      0     0.0  0.000      0      0  0.162  0.441  0.000  0.000  0.000  0.000  0.000    3.83   0.00   0.00      0      0  318.2   0.17   0.16    4.0   0.51    0.32    0.27    0.19    0.08    0.02    0.00    0.00    0.00    0.00       11      16
 2015 174    27    26    4.9      0  0.660    203     55      0     99    258    258      0     0.0  0.000      0      0  0.000  0.000  0.000  0.000  0.000  0.000  0.000    3.84   0.00   0.00      0      0  324.6   0.17   0.17    4.1   0.51    0.33    0.27    0.19    0.08    0.02    0.00    0.00    0.00    0.00       12      18
 2015 175    28    27    5.1      0  0.725    219     63      0    101    282    282      0     0.0  0.000      0      0  0.000  0.000  0.000  0.000  0.000  0.000  0.000    3.84   0.00   0.00      0      0  330.7   0.19   0.18    4.4   0.51    0.34    0.28    0.20    0.08    0.03    0.00    0.00    0.00    0.00       26      20
 2015 176    29    28    5.3      0  0.772    234     72      0    104    306    306      0     0.0  0.000      0      0  0.000  0.000  0.000  0.000  0.000  0.000  0.000    3.84   0.00   0.00      0      0  330.1   0.20   0.19    4.6   0.51    0.35    0.28    0.20    0.09    0.03    0.00    0.00    0.00    0.00       44      21
 2015 177    30    29    5.5      0  0.835    257     84      0    111    341    341      0     0.0  0.000      0      0  0.000  0.000  0.076  0.000  0.000  0.000  0.000    3.61   0.00   0.00      0      0  325.0   0.21   0.21    5.4   0.51    0.37    0.30    0.21    0.09    0.03    0.00    0.00    0.00    0.00       54      23
 2015 178    31    30    5.7      1  0.930    286     99      0    114    385    385      0     0.0  0.000      0      0  0.000  0.000  0.000  0.000  0.000  0.000  0.000    3.68   0.00   0.00      0      0  325.1   0.22   0.22    5.6   0.51    0.38    0.31    0.22    0.10    0.03    0.00    0.00    0.00    0.00       54      25
 2015 179    32    31    5.9      1  1.008    314    116      0    117    430    430      0     0.0  0.000      0      0  0.000  0.000  0.000  0.000  0.000  0.000  0.000    3.78   0.00   0.00      0      0  320.7   0.24   0.23    5.8   0.51    0.38    0.32    0.23    0.10    0.03    0.00    0.00    0.00    0.00       54      26
 2015 180    33    32    6.2      1  1.090    348    139      0    121    486    486      0     0.0  0.000      0      0  0.000  0.000  0.000  0.000  0.000  0.000  0.000    3.80   0.00   0.00      0      0  313.7   0.25   0.24    6.2   0.51    0.40    0.33    0.23    0.10    0.03    0.00    0.00    0.00    0.00       54      28
 2015 181    34    33    6.4      1  1.137    378    166      0    134    544    544      0     0.0  0.000      0      0  0.000  0.136  0.099  0.000  0.000  0.000  0.000    3.63   0.00   0.00      0      0  300.8   0.26   0.25    7.2   0.51    0.44    0.36    0.26    0.12    0.04    0.00    0.00    0.00    0.00       57      30
 2015 182    35    34    6.6      1  1.200    412    197      0    139    609    609      0     0.0  0.000      0      0  0.000  0.000  0.000  0.000  0.000  0.000  0.000    3.63   0.00   0.00      0      0  291.4   0.28   0.27    7.6   0.51    0.46    0.37    0.27    0.12    0.04    0.00    0.00    0.00    0.00       60      32
 2015 183    36    35    6.8      1  1.238    437    226      0    143    662    662      0     0.0  0.000      0      0  0.000  0.000  0.000  0.000  0.000  0.000  0.000    3.78   0.00   0.00      0      0  283.3   0.30   0.28    8.0   0.51    0.47    0.38    0.28    0.13    0.04    0.00    0.00    0.00    0.00       69      35
 2015 184    37    36    7.1      1  1.223    453    263      0    148    716    716      0     0.0  0.000      0      0  0.000  0.000  0.000  0.000  0.000  0.000  0.000    3.80   0.00   0.00      0      0  270.0   0.32   0.30    9.3   0.51    0.48    0.39    0.29    0.13    0.04    0.00    0.00    0.00    0.00       94      37
 2015 185    38    37    7.3      1  1.230    475    300      0    152    775    775      0     0.0  0.000      0      0  0.000  0.000  0.000  0.000  0.000  0.000  0.000    3.85   0.00   0.00      0      0  258.8   0.34   0.31    9.7   0.51    0.50    0.41    0.29    0.14    0.04    0.00    0.00    0.00    0.00      106      40
 2015 186    39    38    7.5      1  1.211    488    336      0    156    824    824      0     0.0  0.000      0      0  0.000  0.000  0.000  0.000  0.000  0.000  0.000    3.92   0.00   0.00      0      0  248.3   0.36   0.32   10.1   0.51    0.51    0.42    0.30    0.14    0.04    0.00    0.00    0.00    0.00      125      42
 2015 187    40    39    7.8      1  1.187    497    370      0    159    866    866      0     0.0  0.000      0      0  0.000  0.000  0.000  0.000  0.000  0.000  0.000    3.99   0.00   0.00      0      0  239.0   0.37   0.34   10.5   0.51    0.52    0.42    0.31    0.14    0.05    0.00    0.00    0.00    0.00      144      45
 2015 188    41    40    8.0      1  1.158    497    391      0    161    888    888      0     0.0  0.000      0      0  0.000  0.000  0.000  0.000  0.000  0.000  0.000    4.07   0.00   0.00      0      0  233.2   0.40   0.35   10.5   0.51    0.52    0.43    0.31    0.14    0.05    0.00    0.00    0.00    0.00      162      47
 2015 189    42    41    8.1      1  1.146    496    400      0    160    896    896      0     0.0  0.000      0      0  0.000  0.000  0.000  0.000  0.000  0.000  0.000    4.11   0.00   0.00      0      0  231.1   0.44   0.37   10.3   0.51    0.52    0.42    0.31    0.14    0.05    0.00    0.00    0.00    0.00      170      50
 2015 190    43    42    8.4      1  1.141    515    444      0    164    959    959      0     0.0  0.000      0      0  0.000  0.000  0.000  0.000  0.000  0.000  0.000    4.09   0.00   0.00      0      0  221.4   0.45   0.38   10.7   0.51    0.53    0.43    0.32    0.15    0.05    0.00    0.00    0.00    0.00      174      52
 2015 191    44    43    8.6      5  1.114    529    495      0    179   1024   1024      0     0.0  0.000      0      0  0.000  0.158  0.000  0.000  0.000  0.000  0.000    4.05   0.00   0.00      0      0  210.5   0.47   0.39   12.5   0.51    0.58    0.47    0.35    0.16    0.05    0.00    0.00    0.00    0.00      187      55
 2015 192    45    44    8.8      5  1.118    555    548      0    183   1103   1103      0     0.0  0.000      0      0  0.000  0.000  0.000  0.000  0.000  0.000  0.000    4.04   0.00   0.00      0      0  201.4   0.49   0.41   12.0   0.51    0.59    0.48    0.35    0.17    0.05    0.00    0.00    0.00    0.00      187      59
 2015 193    46    45    9.0      5  1.107    569    590      0    186   1159   1166     82     0.0  0.000      6     18  0.000  0.000  0.000  0.000  0.000  0.000  0.000    4.09   0.35   0.01      0      6  194.5   0.51   0.42   11.5   0.51    0.60    0.49    0.36    0.17    0.05    0.00    0.00    0.00    0.00      197      62
 2015 194    47    46    9.0      5  1.081    580    639      7    189   1219   1244    155     4.6  0.006     25     33  0.000  0.000  0.000  0.000  0.000  0.000  0.000    4.03  28.46   0.02      0     25  186.3   0.53   0.43   13.4   0.51    0.62    0.50    0.37    0.17    0.06    0.00    0.00    0.00    0.00      212      65
 2015 195    48    47    9.0      5  1.079    594    672     21    191   1266   1324    259     8.0  0.016     58     56  0.000  0.000  0.000  0.000  0.000  0.000  0.000    4.05  35.57   0.04      0     58  181.7   0.55   0.44   12.9   0.51    0.62    0.50    0.37    0.17    0.06    0.00    0.00    0.00    0.00      216      69
 2015 196    49    48    9.0      5  1.081    604    695     43    191   1299   1405    345    12.4  0.031    106     74  0.000  0.000  0.000  0.000  0.000  0.000  0.000    4.08  40.48   0.08      0    106  178.9   0.57   0.45   12.4   0.51    0.62    0.50    0.37    0.17    0.06    0.00    0.00    0.00    0.00      218      73
 2015 197    50    49    9.0      5  1.073    605    706     74    190   1311   1481    432    17.0  0.050    170     93  0.000  0.000  0.000  0.000  0.000  0.000  0.000    4.09  43.33   0.11      0    170  177.3   0.60   0.45   11.9   0.51    0.62    0.50    0.37    0.17    0.06    0.00    0.00    0.00    0.00      224      77
 2015 198    51    50    9.0      5  1.056    601    722    111    186   1323   1566    500    22.3  0.071    243    108  0.000  0.000  0.000  0.000  0.000  0.000  0.000    4.01  45.82   0.16      0    243  175.6   0.60   0.45   13.5   0.51    0.61    0.49    0.36    0.17    0.05    0.00    0.00    0.00    0.00      233      80
 2015 199    52    51    9.0      5  1.041    590    714    155    183   1304   1635    604    25.6  0.095    331    130  0.000  0.000  0.000  0.000  0.000  0.000  0.000    4.00  46.73   0.20      0    331  176.3   0.60   0.45   12.9   0.51    0.60    0.48    0.35    0.17    0.05    0.00    0.00    0.00    0.00      242      83
 2015 200    53    52    9.0      5  1.021    577    702    208    180   1279   1705    604    34.5  0.122    426    130  0.000  0.000  0.000  0.000  0.000  0.000  0.000    3.97  48.94   0.25      0    426  177.2   0.60   0.45   12.4   0.51    0.59    0.47    0.35    0.17    0.05    0.00    0.00    0.00    0.00      251      87
 2015 201    54    53    9.0      5  1.000    562    690    263    176   1252   1778    615    42.7  0.148    525    133  0.000  0.000  0.000  0.000  0.000  0.000  0.000    3.94  49.97   0.30      0    525  178.1   0.60   0.45   11.9   0.51    0.58    0.47    0.34    0.16    0.05    0.00    0.00    0.00    0.00      262      91
 2015 202    55    54    9.0      5  0.979    547    678    317    173   1225   1843    615    51.6  0.172    618    133  0.000  0.000  0.000  0.000  0.000  0.000  0.000    3.90  51.31   0.34      0    618  179.1   0.60   0.45   11.5   0.51    0.57    0.46    0.34    0.16    0.05    0.00    0.00    0.00    0.00      272      94
 2015 203    56    55    9.0      5  0.954    530    665    373    169   1195   1902    615    60.6  0.196    707    133  0.152  0.435  0.000  0.000  0.000  0.000  0.000    3.85  52.76   0.37      0    707  180.1   0.60   0.45   11.0   0.51    0.56    0.45    0.33    0.16    0.05    0.00    0.00    0.00    0.00      283      98
 2015 204    57    56    9.0      5  0.927    514    658    430    165   1172   1959    615    69.9  0.219    787    133  0.151  0.434  0.000  0.000  0.000  0.000  0.000    3.78  54.58   0.40      0    787  180.4   0.60   0.45   11.5   0.51    0.54    0.44    0.32    0.15    0.05    0.00    0.00    0.00    0.00      295     101
 2015 205    58    57    9.0      5  0.905    500    649    485    162   1149   2024    716    67.7  0.240    876    154  0.000  0.000  0.000  0.000  0.000  0.000  0.000    3.73  55.38   0.43      0    876  181.0   0.60   0.45   11.5   0.51    0.54    0.43    0.32    0.15    0.05    0.00    0.00    0.00    0.00      306     104
 2015 206    59    58    9.0      5  0.882    484    636    551    159   1120   2088    722    76.3  0.264    968    156  0.000  0.000  0.000  0.000  0.000  0.000  0.000    3.68  56.94   0.46      0    968  182.2   0.60   0.45   11.1   0.51    0.52    0.43    0.31    0.15    0.05    0.00    0.00    0.00    0.00      317     108
 2015 207    60    59    9.0      5  0.839    457    620    618    155   1077   2136    803    76.9  0.289   1059    173  0.000  0.000  0.000  0.000  0.000  0.000  0.000    3.62  58.34   0.50      0   1059  183.5   0.60   0.45   10.6   0.51    0.51    0.42    0.31    0.15    0.05    0.00    0.00    0.00    0.00      343     112
 2015 208    61    60    9.0      5  0.799    432    606    690    152   1038   2187    879    78.5  0.316   1149    189  0.000  0.077  0.000  0.000  0.000  0.000  0.000    3.56  60.08   0.53      0   1149  184.6   0.60   0.45   10.6   0.51    0.51    0.41    0.30    0.14    0.05    0.00    0.00    0.00    0.00      366     115
 2015 209    62    61    9.0      5  0.779    420    598    763    149   1018   2236    879    86.8  0.341   1218    189  0.000  0.000  0.000  0.000  0.000  0.000  0.002    3.50  62.66   0.54      0   1218  185.5   0.60   0.45   11.1   0.51    0.50    0.40    0.30    0.14    0.04    0.00    0.00    0.00    0.00      375     117
 2015 210    63    62    9.0      5  0.759    407    588    841    146    996   2300    879    95.7  0.366   1304    189  0.000  0.000  0.000  0.000  0.000  0.000  0.000    3.44  64.53   0.57      0   1304  186.4   0.60   0.45   11.5   0.51    0.49    0.39    0.29    0.14    0.04    0.00    0.00    0.00    0.00      383     120
 2015 211    64    63    9.0      5  0.739    394    577    922    143    971   2362    879   104.9  0.390   1392    189  0.000  0.000  0.000  0.000  0.000  0.000  0.000    3.37  66.28   0.59      0   1392  187.8   0.60   0.45   11.1   0.51    0.48    0.39    0.28    0.13    0.04    0.00    0.00    0.00    0.00      393     123
 2015 212    65    64    9.0      5  0.719    380    566    995    140    946   2422    879   113.2  0.411   1475    189  0.000  0.000  0.000  0.000  0.000  0.000  0.000    3.31  67.46   0.61      0   1475  189.1   0.60   0.45   10.6   0.51    0.47    0.38    0.28    0.13    0.04    0.00    0.00    0.00    0.00      401     126
 2015 213    66    65    9.0      5  0.699    372    571   1068    138    943   2487    879   121.4  0.429   1545    189  0.000  0.015  0.000  0.000  0.000  0.000  0.000    3.20  69.13   0.62      0   1545  188.1   0.60   0.45   10.8   0.51    0.46    0.37    0.27    0.13    0.04    0.00    0.00    0.00    0.00      410     129
 2015 214    67    66    9.0      5  0.681    359    560   1139    135    919   2542    879   129.5  0.448   1623    189  0.000  0.000  0.000  0.000  0.000  0.000  0.000    3.13  70.17   0.64      0   1623  189.6   0.60   0.45   10.8   0.51    0.45    0.37    0.27    0.13    0.04    0.00    0.00    0.00    0.00      418     131
 2015 215    68    67    9.0      7  0.661    346    549   1219    132    895   2596    879   138.6  0.470   1702    189  0.000  0.000  0.000  0.000  0.000  0.000  0.000    3.05  71.65   0.66      0   1702  191.1   0.60   0.45   10.4   0.51    0.44    0.36    0.26    0.13    0.04    0.00    0.00    0.00    0.00      426     134
 2015 216    69    68    9.0      7  0.489    259    538   1283    129    797   2559    879   145.9  0.501   1762    189  0.000  0.000  0.182  0.000  0.000  0.000  0.000    2.84  72.80   0.69      0   1762  189.0   0.60   0.45   10.4   0.51    0.44    0.35    0.26    0.12    0.04    0.00    0.00    0.00    0.00      539     137
 2015 217    70    69    9.0      7  0.362    190    513   1348    127    704   2527    879   153.3  0.533   1823    189  0.000  0.000  0.000  0.000  0.000  0.000  0.000    2.67  73.92   0.72      0   1823  190.2   0.60   0.45   10.4   0.51    0.43    0.35    0.25    0.12    0.04    0.00    0.00    0.00    0.00      623     139
 2015 218    71    70    9.0      7  0.268    139    491   1400    124    630   2502    879   159.2  0.560   1871    189  0.000  0.000  0.000  0.000  0.000  0.000  0.000    2.54  74.80   0.75      0   1871  192.3   0.60   0.45   10.0   0.51    0.42    0.34    0.25    0.12    0.04    0.00    0.00    0.00    0.00      685     142
 2015 219    72    71    9.0      7  0.199    102    473   1439    121    576   2483    879   163.7  0.580   1907    189  0.000  0.000  0.000  0.000  0.000  0.000  0.000    2.41  75.46   0.77      0   1907  194.3   0.60   0.45    9.6   0.51    0.41    0.33    0.24    0.12    0.04    0.00    0.00    0.00    0.00      730     145
 2015 220    73    72    9.0      7  0.148     75    459   1467    119    535   2467    879   166.9  0.595   1932    189  0.000  0.000  0.000  0.000  0.000  0.000  0.000    2.31  75.93   0.78      0   1932  196.1   0.60   0.45    9.6   0.51    0.40    0.33    0.24    0.11    0.04    0.00    0.00    0.00    0.00      763     147
 2015 221    74    73    9.0      7  0.110     56    448   1488    117    504   2455    879   169.3  0.606   1951    189  0.000  0.000  0.000  0.000  0.000  0.000  0.000    2.21  76.30   0.79      0   1951  197.8   0.60   0.45    9.2   0.51    0.40    0.32    0.24    0.11    0.04    0.00    0.00    0.00    0.00      788     150
 2015 222    75    74    9.0      7  0.082     41    438   1506    114    479   2445    879   171.2  0.616   1965    189  0.000  0.000  0.000  0.000  0.000  0.000  0.000    2.12  76.61   0.80      0   1965  199.5   0.60   0.45    8.8   0.51    0.39    0.31    0.23    0.11    0.04    0.00    0.00    0.00    0.00      806     152
 2015 223    76    75    9.0      7  0.061     30    430   1515    112    461   2434    879   172.3  0.623   1973    189  0.000  0.000  0.000  0.000  0.000  0.000  0.011    2.06  76.81   0.81      0   1973  201.2   0.60   0.45    8.5   0.51    0.38    0.31    0.23    0.11    0.03    0.00    0.00    0.00    0.00      819     155
 2015 224    77    76    9.0      8  0.046     22    424   1523    110    446   2425    879   173.2  0.628   1979    189  0.000  0.000  0.000  0.000  0.000  0.000  0.000    2.02  76.96   0.82      0   1979  202.8   0.60   0.45    8.1   0.51    0.37    0.30    0.22    0.11    0.03    0.00    0.00    0.00    0.00      829     157
