*PLANT N BALANCE

*DSSAT Cropping System Model Ver. 4.7.5.007 -  JAN 21, 2026 10:11:01

*RUN   1        : Esplen_EPOCA_1_2015       CRGRO047 EMEP1403    1
 MODEL          : CRGRO047 - Dry bean
 EXPERIMENT     : EMEP1403 BN EMGO1401BN CULTIVAR ESPLENDOR
 DATA PATH      :
 TREATMENT  1   : Esplen_EPOCA_1_2015       CRGRO047


 CROP           : Dry bean         CULTIVAR : RODADA_GA        ECOTYPE :MESIND
 STARTING DATE  : APR 13 2015
 PLANTING DATE  : APR 13 2015        PLANTS/m2 : 33.3     ROW SPACING :  45.cm
 WEATHER        : AFGO   2015
 SOIL           : GOST000002     TEXTURE : VFSA  - Latossolo V. Distrofico(2
 SOIL INITIAL C : DEPTH: 90cm EXTR. H2O: 87.7mm  NO3: 90.3kg/ha  NH4:  9.8kg/ha
 WATER BALANCE  : IRRIGATE ON REPORTED DATE(S)
 IRRIGATION     :      288 mm IN    18 APPLICATIONS
 NITROGEN BAL.  : SOIL-N, N-UPTAKE & DYNAMIC N-FIXATION SIMULATION
 N-FERTILIZER   :      100 kg/ha IN     3 APPLICATIONS
 RESIDUE/MANURE : INITIAL :     0 kg/ha ;       0 kg/ha IN     0 APPLICATIONS
 ENVIRONM. OPT. : DAYL=    0.00  SRAD=    0.00  TMAX=    0.00  TMIN=    0.00
                  RAIN=    0.00  CO2 =    0.00  DEW =    0.00  WIND=    0.00
 SIMULATION OPT : WATER   :Y  NITROGEN:Y  N-FIX:Y  PHOSPH :N  PESTS  :N
                  PHOTO   :L  ET      :R  INFIL:S  HYDROL :R  SOM    :G
                  CO2 400ppm  NSWIT   :1  EVAP :S  SOIL   :3  STEMP  :D
 MANAGEMENT OPT : PLANTING:R  IRRIG   :R  FERT :R  RESIDUE:R  HARVEST:M
                  WEATHER :M  TILLAGE :N

*SUMMARY OF SOIL AND GENETIC INPUT PARAMETERS

   SOIL LOWER UPPER   SAT  EXTR  INIT   ROOT   BULK     pH    NO3    NH4    ORG
  DEPTH LIMIT LIMIT    SW    SW    SW   DIST   DENS                          C
   cm   cm3/cm3    cm3/cm3    cm3/cm3         g/cm3         ugN/g  ugN/g     %
-------------------------------------------------------------------------------
  0- 10 0.283 0.377 0.460 0.094 0.377   1.00   1.76   5.00   5.50   0.60   1.67
 10- 20 0.292 0.387 0.440 0.095 0.387   0.80   1.88   5.00   5.50   0.60   1.23
 20- 30 0.286 0.380 0.450 0.094 0.380   0.60   1.85   5.00   5.50   0.60   1.06
 30- 40 0.299 0.398 0.460 0.099 0.398   0.30   1.82   5.00   5.50   0.60   0.87
 40- 50 0.299 0.398 0.460 0.099 0.398   0.10   1.82   5.00   5.50   0.60   0.87
 50- 60 0.299 0.398 0.460 0.099 0.398   0.00   1.82   5.00   5.50   0.60   0.87
 60- 70 0.299 0.398 0.460 0.099 0.398   0.00   1.82   5.00   5.50   0.60   0.87
 70- 80 0.299 0.398 0.460 0.099 0.398   0.00   1.82   5.00   5.50   0.60   0.87
 80- 90 0.299 0.398 0.460 0.099 0.398   0.00   1.82   5.00   5.50   0.60   0.87

TOT- 90  26.5  35.3  41.1   8.8  35.3  <--cm   -  kg/ha-->   90.3    9.8 167130
SOIL ALBEDO    : 0.14      EVAPORATION LIMIT : 6.00         MIN. FACTOR  : 1.00
RUNOFF CURVE # :83.00      DRAINAGE RATE     : 0.30         FERT. FACTOR : 0.90

 Dry bean   CULTIVAR :IB0096-RODADA_GA          ECOTYPE :MESIND
 CSDVAR :12.17  PPSEN  : 0.00  EMG-FLW:20.40  FLW-FSD: 9.40  FSD-PHM : 18.20
 WTPSD  :0.204  SDPDVR : 4.64  SDFDUR :20.90  PODDUR : 9.00  XFRUIT  :  1.00
 THRESH : 78.0  SDPRO  :0.235  SDLIP   : 0.030


   PLANT COMPONENT  HARVEST     LOST*   TOTAL  BALANCE
   ---------------  -------- kg[N]/ha -------  -------
   Leaf N              0.56    14.62    15.18
   Stem N              6.19     2.44     8.63
   Shell N            10.66     0.27    10.93
   Seed N             63.06     0.00    63.06
   Root N              1.42     2.42     3.85
   Nodule N            0.79     0.83     1.62
   Total N            82.67    20.59   103.27
   N leakage                             8.30
   TOTAL N                                      111.56


   N INPUTS TO SYSTEM                kg[N]/ha
   ------------------                --------
   Seed N At Planting                    1.92
   N2 Fixed                             17.97
   N Uptake from Soil                   91.83
   TOTAL N                                      111.71

   * Lost due to senescence, freeze, pest or disease damage.

*******************************************************************************

*DSSAT Cropping System Model Ver. 4.7.5.007 -  JAN 21, 2026 10:11:01

*RUN   2        : Esplen_EPOCA_2_2015       CRGRO047 EMEP1403    2
 MODEL          : CRGRO047 - Dry bean
 EXPERIMENT     : EMEP1403 BN EMGO1401BN CULTIVAR ESPLENDOR
 DATA PATH      :
 TREATMENT  2   : Esplen_EPOCA_2_2015       CRGRO047


 CROP           : Dry bean         CULTIVAR : RODADA_GA        ECOTYPE :MESIND
 STARTING DATE  : MAY  6 2015
 PLANTING DATE  : MAY  6 2015        PLANTS/m2 : 33.3     ROW SPACING :  45.cm
 WEATHER        : AFGO   2015
 SOIL           : GOST000002     TEXTURE : VFSA  - Latossolo V. Distrofico(2
 SOIL INITIAL C : DEPTH: 90cm EXTR. H2O: 87.7mm  NO3: 90.3kg/ha  NH4:  9.8kg/ha
 WATER BALANCE  : IRRIGATE ON REPORTED DATE(S)
 IRRIGATION     :      377 mm IN    22 APPLICATIONS
 NITROGEN BAL.  : SOIL-N, N-UPTAKE & DYNAMIC N-FIXATION SIMULATION
 N-FERTILIZER   :      100 kg/ha IN     3 APPLICATIONS
 RESIDUE/MANURE : INITIAL :     0 kg/ha ;       0 kg/ha IN     0 APPLICATIONS
 ENVIRONM. OPT. : DAYL=    0.00  SRAD=    0.00  TMAX=    0.00  TMIN=    0.00
                  RAIN=    0.00  CO2 =    0.00  DEW =    0.00  WIND=    0.00
 SIMULATION OPT : WATER   :Y  NITROGEN:Y  N-FIX:Y  PHOSPH :N  PESTS  :N
                  PHOTO   :L  ET      :R  INFIL:S  HYDROL :R  SOM    :G
                  CO2 400ppm  NSWIT   :1  EVAP :S  SOIL   :3  STEMP  :D
 MANAGEMENT OPT : PLANTING:R  IRRIG   :R  FERT :R  RESIDUE:R  HARVEST:M
                  WEATHER :M  TILLAGE :N

*SUMMARY OF SOIL AND GENETIC INPUT PARAMETERS

   SOIL LOWER UPPER   SAT  EXTR  INIT   ROOT   BULK     pH    NO3    NH4    ORG
  DEPTH LIMIT LIMIT    SW    SW    SW   DIST   DENS                          C
   cm   cm3/cm3    cm3/cm3    cm3/cm3         g/cm3         ugN/g  ugN/g     %
-------------------------------------------------------------------------------
  0- 10 0.283 0.377 0.460 0.094 0.377   1.00   1.76   5.00   5.50   0.60   1.67
 10- 20 0.292 0.387 0.440 0.095 0.387   0.80   1.88   5.00   5.50   0.60   1.23
 20- 30 0.286 0.380 0.450 0.094 0.380   0.60   1.85   5.00   5.50   0.60   1.06
 30- 40 0.299 0.398 0.460 0.099 0.398   0.30   1.82   5.00   5.50   0.60   0.87
 40- 50 0.299 0.398 0.460 0.099 0.398   0.10   1.82   5.00   5.50   0.60   0.87
 50- 60 0.299 0.398 0.460 0.099 0.398   0.00   1.82   5.00   5.50   0.60   0.87
 60- 70 0.299 0.398 0.460 0.099 0.398   0.00   1.82   5.00   5.50   0.60   0.87
 70- 80 0.299 0.398 0.460 0.099 0.398   0.00   1.82   5.00   5.50   0.60   0.87
 80- 90 0.299 0.398 0.460 0.099 0.398   0.00   1.82   5.00   5.50   0.60   0.87

TOT- 90  26.5  35.3  41.1   8.8  35.3  <--cm   -  kg/ha-->   90.3    9.8 167130
SOIL ALBEDO    : 0.14      EVAPORATION LIMIT : 6.00         MIN. FACTOR  : 1.00
RUNOFF CURVE # :83.00      DRAINAGE RATE     : 0.30         FERT. FACTOR : 0.90

 Dry bean   CULTIVAR :IB0096-RODADA_GA          ECOTYPE :MESIND
 CSDVAR :12.17  PPSEN  : 0.00  EMG-FLW:20.40  FLW-FSD: 9.40  FSD-PHM : 18.20
 WTPSD  :0.204  SDPDVR : 4.64  SDFDUR :20.90  PODDUR : 9.00  XFRUIT  :  1.00
 THRESH : 78.0  SDPRO  :0.235  SDLIP   : 0.030


   PLANT COMPONENT  HARVEST     LOST*   TOTAL  BALANCE
   ---------------  -------- kg[N]/ha -------  -------
   Leaf N              0.49    12.99    13.48
   Stem N              4.85     2.15     7.00
   Shell N             9.29     0.28     9.57
   Seed N             54.86     0.00    54.86
   Root N              1.39     2.35     3.74
   Nodule N            0.82     0.63     1.45
   Total N            71.70    18.40    90.10
   N leakage                            10.94
   TOTAL N                                      101.04


   N INPUTS TO SYSTEM                kg[N]/ha
   ------------------                --------
   Seed N At Planting                    1.92
   N2 Fixed                             13.39
   N Uptake from Soil                   85.80
   TOTAL N                                      101.11

   * Lost due to senescence, freeze, pest or disease damage.

*******************************************************************************

*DSSAT Cropping System Model Ver. 4.7.5.007 -  JAN 21, 2026 10:11:01

*RUN   3        : Esplen_EPOCA_3_2015       CRGRO047 EMEP1403    3
 MODEL          : CRGRO047 - Dry bean
 EXPERIMENT     : EMEP1403 BN EMGO1401BN CULTIVAR ESPLENDOR
 DATA PATH      :
 TREATMENT  3   : Esplen_EPOCA_3_2015       CRGRO047


 CROP           : Dry bean         CULTIVAR : RODADA_GA        ECOTYPE :MESIND
 STARTING DATE  : MAY 28 2015
 PLANTING DATE  : MAY 28 2015        PLANTS/m2 : 33.3     ROW SPACING :  45.cm
 WEATHER        : AFGO   2015
 SOIL           : GOST000002     TEXTURE : VFSA  - Latossolo V. Distrofico(2
 SOIL INITIAL C : DEPTH: 90cm EXTR. H2O: 87.7mm  NO3: 90.3kg/ha  NH4:  9.8kg/ha
 WATER BALANCE  : IRRIGATE ON REPORTED DATE(S)
 IRRIGATION     :      418 mm IN    21 APPLICATIONS
 NITROGEN BAL.  : SOIL-N, N-UPTAKE & DYNAMIC N-FIXATION SIMULATION
 N-FERTILIZER   :      100 kg/ha IN     3 APPLICATIONS
 RESIDUE/MANURE : INITIAL :     0 kg/ha ;       0 kg/ha IN     0 APPLICATIONS
 ENVIRONM. OPT. : DAYL=    0.00  SRAD=    0.00  TMAX=    0.00  TMIN=    0.00
                  RAIN=    0.00  CO2 =    0.00  DEW =    0.00  WIND=    0.00
 SIMULATION OPT : WATER   :Y  NITROGEN:Y  N-FIX:Y  PHOSPH :N  PESTS  :N
                  PHOTO   :L  ET      :R  INFIL:S  HYDROL :R  SOM    :G
                  CO2 400ppm  NSWIT   :1  EVAP :S  SOIL   :3  STEMP  :D
 MANAGEMENT OPT : PLANTING:R  IRRIG   :R  FERT :R  RESIDUE:R  HARVEST:M
                  WEATHER :M  TILLAGE :N

*SUMMARY OF SOIL AND GENETIC INPUT PARAMETERS

   SOIL LOWER UPPER   SAT  EXTR  INIT   ROOT   BULK     pH    NO3    NH4    ORG
  DEPTH LIMIT LIMIT    SW    SW    SW   DIST   DENS                          C
   cm   cm3/cm3    cm3/cm3    cm3/cm3         g/cm3         ugN/g  ugN/g     %
-------------------------------------------------------------------------------
  0- 10 0.283 0.377 0.460 0.094 0.377   1.00   1.76   5.00   5.50   0.60   1.67
 10- 20 0.292 0.387 0.440 0.095 0.387   0.80   1.88   5.00   5.50   0.60   1.23
 20- 30 0.286 0.380 0.450 0.094 0.380   0.60   1.85   5.00   5.50   0.60   1.06
 30- 40 0.299 0.398 0.460 0.099 0.398   0.30   1.82   5.00   5.50   0.60   0.87
 40- 50 0.299 0.398 0.460 0.099 0.398   0.10   1.82   5.00   5.50   0.60   0.87
 50- 60 0.299 0.398 0.460 0.099 0.398   0.00   1.82   5.00   5.50   0.60   0.87
 60- 70 0.299 0.398 0.460 0.099 0.398   0.00   1.82   5.00   5.50   0.60   0.87
 70- 80 0.299 0.398 0.460 0.099 0.398   0.00   1.82   5.00   5.50   0.60   0.87
 80- 90 0.299 0.398 0.460 0.099 0.398   0.00   1.82   5.00   5.50   0.60   0.87

TOT- 90  26.5  35.3  41.1   8.8  35.3  <--cm   -  kg/ha-->   90.3    9.8 167130
SOIL ALBEDO    : 0.14      EVAPORATION LIMIT : 6.00         MIN. FACTOR  : 1.00
RUNOFF CURVE # :83.00      DRAINAGE RATE     : 0.30         FERT. FACTOR : 0.90

 Dry bean   CULTIVAR :IB0096-RODADA_GA          ECOTYPE :MESIND
 CSDVAR :12.17  PPSEN  : 0.00  EMG-FLW:20.40  FLW-FSD: 9.40  FSD-PHM : 18.20
 WTPSD  :0.204  SDPDVR : 4.64  SDFDUR :20.90  PODDUR : 9.00  XFRUIT  :  1.00
 THRESH : 78.0  SDPRO  :0.235  SDLIP   : 0.030


   PLANT COMPONENT  HARVEST     LOST*   TOTAL  BALANCE
   ---------------  -------- kg[N]/ha -------  -------
   Leaf N              0.45    13.50    13.95
   Stem N              4.69     2.23     6.92
   Shell N             9.23     0.40     9.63
   Seed N             54.16     0.00    54.16
   Root N              1.23     2.20     3.43
   Nodule N            0.39     0.62     1.01
   Total N            70.16    18.94    89.10
   N leakage                            11.05
   TOTAL N                                      100.14


   N INPUTS TO SYSTEM                kg[N]/ha
   ------------------                --------
   Seed N At Planting                    1.92
   N2 Fixed                              6.74
   N Uptake from Soil                   91.55
   TOTAL N                                      100.21

   * Lost due to senescence, freeze, pest or disease damage.

*******************************************************************************
