*Soil Inorganic Nitrogen daily output file

*DSSAT Cropping System Model Ver. 4.7.5.007 -  JAN 21, 2026 10:11:01
!                                                                                                                              NO3 (ppm) at soil dep. (cm):                                            NH4 (ppm) at soil dep. (cm):                                            Total Inorganic N @dep(ppm):
!                                                                                                                              0-10   10-20   20-30   30-40   40-50   50-60   60-70   70-80   80-90    0-10   10-20   20-30   30-40   40-50   50-60   60-70   70-80   80-90    0-10   10-20   20-30   30-40   40-50   50-60   60-70   70-80   80-90
@YEAR DOY   DAS  NAPC  NI#M    NIAD    NITD    NHTD    NMNC    NITC    NDNC    NIMC    AMLC   NNMNC    NUCM    NLCC    TDFC    NI1D    NI2D    NI3D    NI4D    NI5D    NI6D    NI7D    NI8D    NI9D    NH1D    NH2D    NH3D    NH4D    NH5D    NH6D    NH7D    NH8D    NH9D    NT1D    NT2D    NT3D    NT4D    NT5D    NT6D    NT7D    NT8D    NT9D    
 2015 102     0     0     0   100.1    90.3     9.8    0.00    0.00    0.00    0.00    0.00    0.00    0.00    0.00    0.00    5.50     5.5     5.5    5.50    5.50    5.50    5.50    5.50    5.50    0.60    0.60    0.60    0.60    0.60    0.60    0.60    0.60    0.60    6.10    6.10    6.10    6.10    6.10    6.10    6.10    6.10    6.10
 2015 103     1    20     1   114.7    92.0    22.7    0.53    1.77    0.00    0.00    0.00    0.53    0.00    0.00    0.00    3.77     5.3     6.1    6.32    6.26    5.81    5.66    5.63    5.61    8.54    0.53    0.53    0.52    0.52    0.52    0.52    0.52    0.52   12.31    5.82    6.59    6.84    6.78    6.33    6.18    6.15    6.13
 2015 104     2    20     1   119.2    93.1    26.1    1.03    2.89    0.00    0.00    0.00    1.03    0.00    0.00    0.00    3.94     5.0     6.0    6.33    6.30    6.24    5.84    5.74    5.67   10.53    0.54    0.54    0.53    0.53    0.52    0.52    0.46    0.46   14.47    5.57    6.51    6.86    6.84    6.76    6.36    6.20    6.13
 2015 105     3    20     1   120.9    94.3    26.5    1.53    4.10    0.00    0.00    0.00    1.53    0.00    0.00    0.00    4.52     5.0     5.9    6.30    6.29    6.24    5.97    5.83    5.77   10.57    0.76    0.55    0.55    0.55    0.53    0.52    0.46    0.41   15.09    5.73    6.41    6.84    6.83    6.77    6.48    6.29    6.18
 2015 106     4    20     1   121.8    95.8    26.0    2.04    5.59    0.00    0.00    0.00    2.04    0.00    0.06    0.00    4.56     4.8     5.8    6.32    6.34    6.32    6.32    6.19    5.94   10.13    0.86    0.57    0.56    0.56    0.54    0.52    0.46    0.37   14.68    5.63    6.35    6.88    6.90    6.86    6.85    6.65    6.31
 2015 107     5    20     1   122.3    96.7    25.6    2.53    6.65    0.00    0.00    0.00    2.53    0.00    0.20    0.00    5.12     4.8     5.7    6.28    6.31    6.30    6.31    6.24    6.05    9.74    0.91    0.60    0.57    0.57    0.56    0.53    0.47    0.38   14.86    5.68    6.28    6.85    6.88    6.85    6.84    6.71    6.43
 2015 108     6    20     1   120.0    95.1    24.9    3.03    7.92    0.48    0.00    0.00    3.03    0.00    2.58    0.00    4.40     4.4     5.4    6.15    6.29    6.31    6.32    6.40    6.48    9.24    0.93    0.62    0.58    0.58    0.57    0.55    0.48    0.39   13.63    5.33    6.03    6.74    6.87    6.88    6.86    6.88    6.87
 2015 109     7    20     1   117.0    92.6    24.3    3.51    8.92    1.08    0.00    0.00    3.51    0.11    5.40    0.00    4.95     4.3     5.1    5.88    6.04    6.07    6.08    6.15    6.27    8.83    0.94    0.64    0.60    0.59    0.58    0.56    0.50    0.40   13.77    5.20    5.78    6.47    6.63    6.65    6.64    6.64    6.67
 2015 110     8    20     1   116.7    93.3    23.4    4.03   10.32    1.44    0.00    0.00    4.03    0.24    5.69    0.00    5.22     4.5     5.2    5.89    6.01    6.03    6.03    6.09    6.23    8.27    0.93    0.64    0.60    0.60    0.58    0.56    0.50    0.41   13.49    5.39    5.89    6.50    6.60    6.61    6.59    6.59    6.64
 2015 111     9    20     1   116.4    93.4    23.0    4.54   11.19    1.92    0.00    0.00    4.54    0.31    5.95    0.00    4.88     4.4     5.2    6.01    6.25    6.19    6.06    6.06    6.17    8.01    0.93    0.65    0.61    0.60    0.59    0.57    0.51    0.42   12.89    5.33    5.86    6.62    6.85    6.78    6.62    6.57    6.60
 2015 112    10    20     1   113.9    91.4    22.5    5.05   12.19    2.49    0.00    0.00    5.05    0.42    8.30    0.00    5.32     4.3     5.0    5.74    5.99    5.99    5.92    5.94    6.04    7.64    0.93    0.66    0.62    0.61    0.59    0.57    0.52    0.43   12.96    5.20    5.63    6.36    6.60    6.59    6.49    6.45    6.47
 2015 113    11    20     1   113.7    92.1    21.6    5.57   13.52    2.81    0.00    0.00    5.57    0.68    8.49    0.00    4.51     4.2     5.0    5.80    6.14    6.28    6.34    6.20    6.09    7.13    0.92    0.66    0.62    0.61    0.59    0.57    0.52    0.44   11.64    5.11    5.63    6.42    6.75    6.87    6.91    6.72    6.53
 2015 114    12    20     1   113.3    92.0    21.3    6.07   14.29    3.42    0.00    0.00    6.07    0.76    8.70    0.00    4.84     4.2     4.9    5.73    6.06    6.20    6.26    6.20    6.12    6.89    0.92    0.67    0.63    0.62    0.60    0.58    0.52    0.44   11.73    5.11    5.55    6.36    6.68    6.80    6.84    6.72    6.57
 2015 115    13    20     1   110.8    90.0    20.7    6.58   15.29    3.95    0.00    0.00    6.58    0.93   11.01    0.00    5.32     4.1     4.7    5.50    5.82    5.96    6.03    6.01    5.99    6.52    0.92    0.67    0.64    0.63    0.61    0.59    0.53    0.45   11.84    5.02    5.38    6.14    6.45    6.57    6.62    6.54    6.44
 2015 116    14    20     1   110.5    90.7    19.8    7.10   16.58    4.25    0.00    0.00    7.10    1.29   11.12    0.00    5.72     4.2     4.7    5.47    5.78    5.92    5.98    6.00    6.00    6.02    0.90    0.67    0.64    0.63    0.61    0.59    0.53    0.45   11.75    5.13    5.36    6.11    6.41    6.53    6.57    6.53    6.45
 2015 117    15    20     1   110.4    91.0    19.4    7.62   17.48    4.59    0.00    0.00    7.62    1.48   11.22    0.00    5.99     4.3     4.7    5.45    5.75    5.88    5.95    5.98    6.01    5.81    0.89    0.66    0.63    0.63    0.61    0.59    0.53    0.45   11.79    5.17    5.35    6.08    6.38    6.50    6.54    6.52    6.46
 2015 118    16    60     2   148.5    91.2    57.2    8.15   18.58    4.86    0.00    0.12    8.15    1.79   11.63    0.00    4.36     4.1     4.7    5.55    5.97    6.21    6.33    6.44    6.40   27.34    0.88    0.64    0.63    0.62    0.61    0.59    0.53    0.46   31.70    4.97    5.35    6.18    6.60    6.82    6.92    6.97    6.86
 2015 119    17    60     2   146.1    89.3    56.8    8.63   20.27    5.52    0.00    0.29    8.63    1.91   14.52    0.00    5.22     3.9     4.5    5.30    5.70    5.95    6.08    6.18    6.19   27.01    0.88    0.65    0.64    0.63    0.62    0.60    0.55    0.47   32.23    4.82    5.15    5.93    6.34    6.57    6.68    6.72    6.66
 2015 120    18    60     2   145.6    91.4    54.2    9.15   23.26    5.89    0.00    0.41    9.15    2.43   14.75    0.00    5.98     4.1     4.7    5.47    5.73    5.92    6.03    6.12    6.17   25.53    0.87    0.65    0.64    0.63    0.62    0.60    0.55    0.47   31.51    4.99    5.33    6.11    6.36    6.54    6.63    6.67    6.64
 2015 121    19    60     2   143.3    90.6    52.7    9.58   25.04    6.32    0.00    0.54    9.58    2.44   16.95    0.00    6.82     4.0     4.5    5.24    5.55    5.76    5.89    5.98    6.05   24.63    0.89    0.66    0.65    0.64    0.63    0.61    0.56    0.48   31.45    4.92    5.15    5.89    6.18    6.39    6.49    6.54    6.53
 2015 122    20    60     2   141.5    91.2    50.2   10.01   27.45    6.55    0.00    0.68   10.01    3.17   18.17    0.00    8.03     4.0     4.4    5.10    5.43    5.66    5.79    5.88    5.95   23.22    0.88    0.66    0.65    0.64    0.62    0.61    0.56    0.48   31.25    4.87    5.03    5.75    6.07    6.28    6.39    6.44    6.44
 2015 123    21    60     2   139.9    92.8    47.1   10.43   30.21    6.65    0.00    0.80   10.43    4.42   18.67    0.00    9.40     3.9     4.3    5.03    5.38    5.61    5.74    5.82    5.92   21.51    0.86    0.65    0.64    0.63    0.62    0.60    0.56    0.49   30.91    4.79    4.94    5.67    6.01    6.23    6.34    6.38    6.40
 2015 124    22    60     2   139.0    97.6    41.3   10.85   35.63    6.66    0.00    0.92   10.85    5.67   18.67    0.00   11.55     4.5     4.3    5.02    5.38    5.61    5.72    5.80    5.93   18.42    0.76    0.63    0.63    0.63    0.61    0.60    0.55    0.45   29.97    5.24    4.95    5.65    6.00    6.22    6.32    6.36    6.38
 2015 125    23    60     2   138.6    98.6    40.0   11.25   37.10    6.67    0.00    1.01   11.25    6.32   18.67    0.00   10.93     5.2     4.5    5.06    5.40    5.68    5.77    5.84    5.95   17.90    0.75    0.61    0.62    0.62    0.56    0.55    0.51    0.41   28.83    5.90    5.12    5.69    6.02    6.24    6.31    6.35    6.37
 2015 126    24    60     2   138.3   100.2    38.1   11.72   39.09    6.71    0.00    1.11   11.72    6.93   18.67    0.00    8.86     5.7     5.0    5.45    5.92    6.15    5.97    5.94    6.00   17.08    0.75    0.60    0.61    0.61    0.50    0.49    0.46    0.38   25.94    6.50    5.64    6.06    6.53    6.65    6.46    6.40    6.38
 2015 127    25    60     2   138.2   101.2    37.0   12.17   40.49    6.91    0.00    1.18   12.17    7.25   18.67    0.00    9.21     5.8     5.0    5.41    5.87    6.21    6.10    6.06    6.07   16.44    0.76    0.61    0.62    0.62    0.51    0.49    0.42    0.35   25.65    6.53    5.59    6.03    6.48    6.72    6.59    6.48    6.41
 2015 128    26    60     2   135.9   100.7    35.2   12.63   42.21    7.09    0.00    1.28   12.63    8.06   20.31    0.00    9.96     5.6     4.8    5.22    5.63    6.00    6.00    6.02    6.14   15.43    0.76    0.62    0.63    0.63    0.52    0.49    0.42    0.32   25.40    6.37    5.44    5.85    6.25    6.52    6.49    6.44    6.46
 2015 129    27    60     2   133.6   100.9    32.7   13.11   44.35    7.27    0.00    1.37   13.11    9.77   21.18    0.00   10.75     5.4     4.7    5.09    5.49    5.89    5.95    6.06    6.18   14.09    0.74    0.61    0.63    0.63    0.52    0.49    0.38    0.30   24.84    6.16    5.29    5.72    6.11    6.41    6.45    6.45    6.48
 2015 130    28    60     2   130.9   101.2    29.7   13.58   46.63    7.34    0.00    1.44   13.58   12.38   21.52    0.00   11.48     5.2     4.6    5.01    5.41    5.83    5.94    6.12    6.22   12.53    0.70    0.59    0.62    0.62    0.52    0.49    0.35    0.28   24.01    5.89    5.14    5.63    6.03    6.36    6.44    6.47    6.50
 2015 131    29    60     2   128.5   103.5    25.0   14.06   50.64    7.37    0.00    1.52   14.06   15.23   21.52    0.00    9.75     6.2     5.4    5.53    5.71    5.93    6.04    6.15    6.22   10.11    0.59    0.56    0.60    0.62    0.52    0.44    0.33    0.27   19.85    6.77    5.92    6.13    6.32    6.45    6.49    6.48    6.49
 2015 132    30    60     2   126.5   102.0    24.4   14.51   51.47    7.57    0.00    1.55   14.51   15.62   23.31    0.00    9.66     6.1     5.2    5.35    5.53    5.81    6.01    6.18    6.28    9.78    0.61    0.57    0.61    0.62    0.53    0.45    0.31    0.26   19.44    6.68    5.77    5.96    6.15    6.34    6.45    6.49    6.54
 2015 133    31    60     2   125.4   102.1    23.3   14.95   52.56    7.69    0.00    1.60   14.95   16.94   23.31    0.00    9.76     6.0     5.1    5.30    5.53    5.87    6.06    6.23    6.30    9.17    0.60    0.57    0.61    0.62    0.53    0.45    0.29    0.25   18.93    6.60    5.66    5.91    6.15    6.39    6.51    6.52    6.54
 2015 134    32    60     2   123.6   101.8    21.8   15.38   53.68    7.80    0.00    1.65   15.38   18.99   23.31    0.00    8.56     6.3     5.4    5.41    5.57    5.92    6.11    6.29    6.31    8.36    0.59    0.56    0.61    0.62    0.53    0.45    0.28    0.24   16.91    6.92    6.01    6.02    6.19    6.44    6.56    6.57    6.55
 2015 135    33    60     2   123.2   101.9    21.3   15.80   54.36    7.95    0.00    1.71   15.80   19.62   23.31    0.00    7.02     6.2     5.6    5.57    5.76    6.26    6.59    6.47    6.40    8.03    0.60    0.57    0.61    0.62    0.53    0.45    0.29    0.23   15.05    6.83    6.21    6.19    6.38    6.79    7.05    6.75    6.63
 2015 136    34    60     2   119.8    99.0    20.8   16.20   54.92    8.43    0.00    1.76   16.20   20.31   25.92    0.00    6.97     6.0     5.4    5.40    5.55    5.98    6.33    6.34    6.36    7.69    0.60    0.57    0.62    0.63    0.54    0.47    0.30    0.24   14.67    6.56    6.01    6.02    6.17    6.52    6.79    6.64    6.60
 2015 137    35    60     2   116.3    96.6    19.7   16.62   55.76    8.73    0.00    1.81   16.62   22.28   27.55    0.00    6.96     5.6     5.2    5.25    5.40    5.81    6.15    6.26    6.36    7.05    0.58    0.57    0.62    0.63    0.55    0.48    0.31    0.24   14.01    6.22    5.77    5.87    6.03    6.36    6.63    6.57    6.59
 2015 138    36    60     2   112.2    94.3    17.9   17.07   56.78    8.87    0.00    1.87   17.07   25.82   28.33    0.00    6.92     5.2     4.9    5.10    5.30    5.70    6.04    6.22    6.37    6.10    0.54    0.54    0.61    0.63    0.55    0.48    0.32    0.23   13.02    5.76    5.46    5.71    5.93    6.25    6.52    6.54    6.60
 2015 139    37   100     3   143.3    93.3    50.0   17.53   58.59    8.94    0.00    5.12   17.53   30.33   28.33    0.00    6.84     5.1     4.7    4.98    5.25    5.68    6.04    6.25    6.40   24.49    0.46    0.50    0.58    0.62    0.55    0.48    0.33    0.22   31.33    5.56    5.19    5.57    5.87    6.24    6.52    6.58    6.63
 2015 140    38   100     3   140.4    93.4    47.0   18.00   60.29    8.98    0.00    7.47   18.00   32.38   28.33    0.00    7.41     4.9     4.5    4.87    5.21    5.67    6.03    6.27    6.44   22.82    0.48    0.51    0.56    0.61    0.55    0.49    0.34    0.22   30.23    5.42    4.97    5.43    5.82    6.23    6.52    6.60    6.66
 2015 141    39   100     3   135.6    93.1    42.5   18.47   62.49    9.02    0.00    9.43   18.47   35.39   28.90    0.00    8.16     4.7     4.2    4.72    5.15    5.63    5.98    6.24    6.46   20.25    0.50    0.51    0.54    0.60    0.55    0.49    0.35    0.21   28.41    5.17    4.70    5.25    5.74    6.18    6.47    6.59    6.67
 2015 142    40   100     3   130.7    93.7    37.1   18.95   65.31    9.03    0.00   10.87   18.95   39.37   28.90    0.00    7.07     4.9     4.7    5.14    5.27    5.68    5.99    6.26    6.46   17.29    0.52    0.46    0.47    0.58    0.55    0.49    0.35    0.21   24.36    5.41    5.16    5.61    5.85    6.22    6.48    6.61    6.67
 2015 143    41   100     3   127.3    92.9    34.4   19.42   66.68    9.06    0.00   12.19   19.42   40.46   30.39    0.00    7.47     4.7     4.5    4.97    5.14    5.60    5.95    6.21    6.48   15.70    0.54    0.49    0.48    0.58    0.54    0.49    0.36    0.20   23.17    5.27    5.01    5.45    5.72    6.14    6.44    6.57    6.68
 2015 144    42   100     3   122.9    92.2    30.7   19.90   68.49    9.16    0.00   13.26   19.90   43.41   31.19    0.00    7.83     4.5     4.3    4.81    5.05    5.57    5.93    6.24    6.49   13.62    0.52    0.50    0.49    0.57    0.54    0.49    0.33    0.20   21.46    4.99    4.82    5.30    5.62    6.11    6.42    6.57    6.69
 2015 145    43   100     3   117.7    91.6    26.1   20.39   70.61    9.19    0.00   14.26   20.39   47.85   31.39    0.00    8.12     4.1     4.1    4.66    5.00    5.62    5.99    6.28    6.51   11.19    0.51    0.51    0.50    0.56    0.49    0.44    0.31    0.20   19.32    4.61    4.59    5.16    5.56    6.11    6.43    6.59    6.71
 2015 146    44   100     3   113.1    92.7    20.3   20.90   74.27    9.19    0.00   15.13   20.90   52.11   31.39    0.00    6.64     4.4     4.4    4.96    5.52    6.01    6.14    6.34    6.51    8.13    0.46    0.51    0.50    0.49    0.44    0.40    0.29    0.20   14.77    4.88    4.92    5.46    6.01    6.45    6.54    6.63    6.70
 2015 147    45   100     3   110.1    91.0    19.1   21.40   75.09    9.31    0.00   15.70   21.40   53.00   33.28    0.00    6.76     4.3     4.2    4.75    5.31    5.81    6.04    6.32    6.53    7.37    0.48    0.53    0.51    0.50    0.45    0.41    0.27    0.19   14.13    4.75    4.74    5.27    5.81    6.26    6.45    6.59    6.72
 2015 148    46   100     3   106.4    89.2    17.2   21.92   76.19    9.37    0.00   16.12   21.92   55.67   34.34    0.00    6.76     4.0     4.0    4.58    5.16    5.70    6.00    6.33    6.54    6.29    0.50    0.51    0.51    0.51    0.45    0.41    0.26    0.19   13.05    4.49    4.50    5.09    5.68    6.15    6.41    6.59    6.73
 2015 149    47   100     3   102.2    87.3    14.9   22.45   77.40    9.40    0.00   16.41   22.45   59.65   34.78    0.00    6.56     3.6     3.7    4.42    5.06    5.65    6.03    6.36    6.56    5.06    0.51    0.51    0.51    0.51    0.46    0.37    0.24    0.19   11.61    4.13    4.23    4.92    5.58    6.10    6.40    6.60    6.75
 2015 150    48   100     3    99.7    87.2    12.5   22.97   79.31    9.41    0.00   16.65   22.97   62.45   34.78    0.00    6.91     3.4     3.6    4.33    5.02    5.63    6.09    6.39    6.59    3.73    0.47    0.51    0.51    0.51    0.46    0.34    0.23    0.19   10.65    3.91    4.07    4.84    5.53    6.09    6.43    6.63    6.78
 2015 151    49   100     3    97.2    86.8    10.4   23.49   81.01    9.41    0.00   16.83   23.49   65.22   34.78    0.00    7.06     3.3     3.4    4.27    4.98    5.64    6.13    6.40    6.59    2.76    0.43    0.47    0.46    0.51    0.46    0.32    0.22    0.19    9.82    3.69    3.90    4.73    5.48    6.10    6.44    6.62    6.77
 2015 152    50   100     3    94.7    86.0     8.7   24.01   82.59    9.41    0.00   16.97   24.01   68.16   34.78    0.00    5.82     3.9     3.5    4.23    4.98    5.69    6.15    6.40    6.58    2.02    0.40    0.43    0.42    0.46    0.41    0.29    0.22    0.18    7.84    4.27    3.94    4.65    5.44    6.10    6.44    6.62    6.76
 2015 153    51   100     3    93.8    85.5     8.3   24.52   83.35    9.41    0.00   17.07   24.52   69.42   34.80    0.00    5.73     3.7     3.3    4.12    4.97    5.74    6.22    6.50    6.68    1.89    0.42    0.44    0.38    0.41    0.38    0.28    0.21    0.18    7.61    4.17    3.73    4.51    5.38    6.12    6.50    6.71    6.86
 2015 154    52   100     3    92.0    84.3     7.7   25.05   84.17    9.41    0.00   17.17   25.05   71.66   34.80    0.00    5.51     3.5     3.1    4.03    4.97    5.80    6.27    6.53    6.70    1.63    0.44    0.44    0.35    0.37    0.34    0.26    0.21    0.18    7.14    3.93    3.51    4.39    5.35    6.14    6.53    6.73    6.88
 2015 155    53   100     3    90.0    83.1     6.9   25.59   85.06    9.41    0.00   17.25   25.59   74.14   34.80    0.00    5.20     3.2     3.0    3.97    4.98    5.83    6.28    6.53    6.70    1.33    0.46    0.41    0.33    0.34    0.32    0.25    0.20    0.18    6.53    3.66    3.37    4.29    5.32    6.15    6.53    6.73    6.88
 2015 156    54   100     3    87.9    81.9     6.0   26.13   86.14    9.41    0.00   17.33   26.13   76.69   34.80    0.00    3.87     3.4     3.3    4.04    5.02    5.86    6.29    6.53    6.69    0.95    0.42    0.38    0.31    0.32    0.29    0.23    0.20    0.18    4.83    3.78    3.69    4.34    5.34    6.16    6.53    6.73    6.87
 2015 157    55   100     3    87.2    81.3     5.9   26.64   86.63    9.41    0.00   17.41   26.64   77.41   35.18    0.00    3.83     3.2     3.2    3.85    4.93    5.88    6.36    6.62    6.79    0.89    0.45    0.40    0.32    0.30    0.28    0.23    0.19    0.18    4.72    3.66    3.60    4.17    5.23    6.16    6.58    6.81    6.97
 2015 158    56   100     3    85.9    80.2     5.7   27.17   87.15    9.41    0.00   17.49   27.17   78.87   35.45    0.00    3.70     3.0     3.1    3.72    4.88    5.89    6.38    6.64    6.81    0.77    0.46    0.42    0.33    0.28    0.26    0.22    0.19    0.18    4.47    3.47    3.47    4.05    5.17    6.15    6.60    6.83    6.99
 2015 159    57   100     3    84.3    78.9     5.4   27.68   87.73    9.41    0.00   17.56   27.68   80.94   35.45    0.00    3.44     2.7     2.9    3.64    4.88    5.93    6.40    6.63    6.80    0.63    0.48    0.43    0.31    0.27    0.25    0.21    0.19    0.18    4.07    3.21    3.31    3.96    5.15    6.18    6.61    6.82    6.98
 2015 160    58   100     3    82.6    77.7     4.9   28.20   88.47    9.41    0.00   17.63   28.20   83.12   35.45    0.00    2.27     2.6     2.9    3.88    5.06    6.02    6.43    6.63    6.79    0.45    0.44    0.44    0.29    0.25    0.24    0.21    0.19    0.18    2.72    3.02    3.37    4.17    5.31    6.26    6.64    6.82    6.97
 2015 161    59   100     3    81.4    76.3     5.0   28.70   88.77    9.45    0.00   17.71   28.70   83.44   36.70    0.00    2.28     2.5     2.8    3.72    4.83    5.85    6.40    6.69    6.87    0.42    0.46    0.46    0.31    0.27    0.25    0.20    0.19    0.18    2.70    2.93    3.26    4.04    5.10    6.10    6.60    6.87    7.05
 2015 162    60   100     3    80.2    75.0     5.1   29.22   89.11    9.47    0.00   17.76   29.22   84.19   37.59    0.00    2.20     2.3     2.7    3.59    4.68    5.75    6.38    6.69    6.89    0.41    0.48    0.47    0.33    0.29    0.26    0.20    0.19    0.18    2.61    2.81    3.15    3.92    4.97    6.02    6.58    6.88    7.07
 2015 163    61   100     3    79.4    74.3     5.1   29.73   89.55    9.48    0.00   17.84   29.73   85.40   37.59    0.00    1.50     2.0     2.6    3.60    4.87    6.04    6.49    6.72    6.88    0.38    0.50    0.48    0.35    0.30    0.25    0.20    0.18    0.18    1.88    2.52    3.10    3.94    5.17    6.29    6.69    6.91    7.06
 2015 164    62   100     3    77.5    72.2     5.3   30.22   89.80    9.51    0.00   17.90   30.22   85.59   39.67    0.00    1.51     1.9     2.5    3.44    4.61    5.74    6.32    6.67    6.89    0.36    0.52    0.50    0.37    0.32    0.27    0.21    0.18    0.18    1.87    2.46    2.99    3.80    4.93    6.01    6.53    6.86    7.07
 2015 165    63   100     3    76.1    70.7     5.4   30.73   90.11    9.62    0.00   17.97   30.73   86.20   40.82    0.00    1.49     1.8     2.4    3.31    4.43    5.57    6.22    6.66    6.90    0.34    0.52    0.51    0.38    0.34    0.28    0.23    0.18    0.18    1.83    2.36    2.89    3.69    4.77    5.85    6.45    6.84    7.08
 2015 166    64   100     3    75.1    69.7     5.4   31.25   90.51    9.66    0.00   18.05   31.25   87.17   41.24    0.00    1.43     1.7     2.3    3.22    4.33    5.49    6.21    6.66    6.92    0.31    0.51    0.51    0.39    0.35    0.30    0.22    0.18    0.18    1.75    2.23    2.78    3.61    4.68    5.78    6.43    6.85    7.10
 2015 167    65   100     3    74.4    69.1     5.2   31.78   91.10    9.68    0.00   18.12   31.78   88.32   41.24    0.00    1.23     1.7     2.2    3.17    4.30    5.50    6.24    6.66    6.91    0.26    0.46    0.51    0.40    0.36    0.31    0.21    0.18    0.18    1.49    2.18    2.72    3.57    4.66    5.80    6.45    6.84    7.09
 2015 168    66   100     3    73.7    68.4     5.3   32.30   91.48    9.70    0.00   18.19   32.30   88.89   41.83    0.00    1.25     1.7     2.1    3.05    4.19    5.41    6.22    6.69    6.96    0.25    0.48    0.51    0.41    0.37    0.32    0.21    0.18    0.18    1.49    2.14    2.60    3.46    4.56    5.72    6.43    6.87    7.14
 2015 169    67   100     3    73.1    67.8     5.3   32.82   91.90    9.70    0.00   18.25   32.82   89.68   42.07    0.00    1.24     1.6     2.0    2.96    4.14    5.37    6.23    6.71    6.98    0.23    0.50    0.50    0.42    0.38    0.32    0.20    0.18    0.18    1.47    2.07    2.49    3.38    4.52    5.69    6.43    6.89    7.16
 2015 170    68   100     3    72.6    67.6     5.0   33.35   92.62    9.70    0.00   18.33   33.35   90.56   42.07    0.00    1.21     1.5     2.0    2.97    4.17    5.40    6.23    6.70    6.97    0.21    0.51    0.46    0.38    0.35    0.30    0.20    0.18    0.18    1.43    1.99    2.42    3.35    4.52    5.71    6.43    6.88    7.14
 2015 171    69   100     3    72.4    67.7     4.7   33.87   93.40    9.70    0.00   18.42   33.87   91.21   42.07    0.00    1.21     1.5     2.0    2.99    4.21    5.43    6.23    6.68    6.95    0.19    0.46    0.42    0.35    0.32    0.28    0.20    0.18    0.18    1.40    1.95    2.39    3.34    4.53    5.72    6.42    6.86    7.13
 2015 172    70   100     3    72.5    68.1     4.4   34.38   94.12    9.70    0.00   18.49   34.38   91.57   42.07    0.00    1.16     1.6     2.0    3.04    4.25    5.46    6.22    6.67    6.93    0.15    0.43    0.39    0.33    0.30    0.27    0.19    0.18    0.18    1.31    2.01    2.44    3.37    4.55    5.72    6.42    6.85    7.11
 2015 173    71   100     3    72.7    68.4     4.3   34.87   94.65    9.70    0.00   18.56   34.87   91.78   42.07    0.00    1.20     1.5     2.1    3.09    4.34    5.53    6.22    6.65    6.91    0.14    0.45    0.37    0.31    0.29    0.25    0.19    0.18    0.18    1.34    2.00    2.43    3.40    4.62    5.78    6.41    6.83    7.09
 2015 174    72   100     3    73.1    68.9     4.2   35.35   95.15    9.70    0.00   18.63   35.35   91.83   42.07    0.00    1.25     1.6     2.1    3.15    4.39    5.60    6.21    6.64    6.89    0.13    0.46    0.35    0.29    0.27    0.24    0.19    0.18    0.18    1.38    2.02    2.47    3.44    4.66    5.84    6.40    6.82    7.07
 2015 175    73   100     3    73.5    69.3     4.1   35.82   95.63    9.70    0.00   18.70   35.82   91.83   42.07    0.00    1.34     1.6     2.2    3.23    4.43    5.61    6.20    6.61    6.86    0.12    0.48    0.33    0.28    0.26    0.24    0.19    0.18    0.18    1.46    2.06    2.53    3.51    4.70    5.84    6.39    6.79    7.04

*DSSAT Cropping System Model Ver. 4.7.5.007 -  JAN 21, 2026 10:11:01
!                                                                                                                              NO3 (ppm) at soil dep. (cm):                                            NH4 (ppm) at soil dep. (cm):                                            Total Inorganic N @dep(ppm):
!                                                                                                                              0-10   10-20   20-30   30-40   40-50   50-60   60-70   70-80   80-90    0-10   10-20   20-30   30-40   40-50   50-60   60-70   70-80   80-90    0-10   10-20   20-30   30-40   40-50   50-60   60-70   70-80   80-90
@YEAR DOY   DAS  NAPC  NI#M    NIAD    NITD    NHTD    NMNC    NITC    NDNC    NIMC    AMLC   NNMNC    NUCM    NLCC    TDFC    NI1D    NI2D    NI3D    NI4D    NI5D    NI6D    NI7D    NI8D    NI9D    NH1D    NH2D    NH3D    NH4D    NH5D    NH6D    NH7D    NH8D    NH9D    NT1D    NT2D    NT3D    NT4D    NT5D    NT6D    NT7D    NT8D    NT9D    
 2015 125     0     0     0   100.1    90.3     9.8    0.00    0.00    0.00    0.00    0.00    0.00    0.00    0.00    0.00    5.50     5.5     5.5    5.50    5.50    5.50    5.50    5.50    5.50    0.60    0.60    0.60    0.60    0.60    0.60    0.60    0.60    0.60    6.10    6.10    6.10    6.10    6.10    6.10    6.10    6.10    6.10
 2015 126     1    20     1   114.7    92.0    22.7    0.53    1.77    0.00    0.00    0.00    0.53    0.00    0.00    0.00    3.47     5.0     5.9    6.28    6.28    6.28    5.87    5.68    5.64    8.54    0.53    0.53    0.52    0.52    0.52    0.52    0.52    0.52   12.01    5.56    6.42    6.80    6.80    6.80    6.39    6.20    6.16
 2015 127     2    20     1   118.5    92.6    25.9    1.00    2.35    0.00    0.00    0.00    1.00    0.00    0.03    0.00    3.64     5.0     5.9    6.28    6.27    6.26    5.98    5.76    5.73   10.36    0.54    0.54    0.53    0.54    0.54    0.53    0.52    0.47   13.99    5.50    6.39    6.81    6.80    6.80    6.50    6.29    6.19
 2015 128     3    20     1   118.6    91.6    27.0    1.48    3.44    0.00    0.00    0.00    1.48    0.00    2.07    0.00    4.30     4.8     5.6    6.06    6.08    6.08    5.88    5.73    5.72   10.83    0.63    0.55    0.55    0.55    0.55    0.53    0.52    0.47   15.12    5.42    6.16    6.61    6.62    6.63    6.41    6.25    6.18
 2015 129     4    20     1   118.5    92.1    26.5    1.98    5.02    0.00    0.00    0.00    1.98    0.00    3.20    0.00    5.17     4.7     5.5    5.93    5.95    5.95    5.81    5.71    5.78   10.49    0.69    0.56    0.55    0.55    0.55    0.53    0.52    0.42   15.66    5.42    6.03    6.48    6.50    6.51    6.34    6.23    6.19
 2015 130     5    20     1   119.2    93.9    25.4    2.46    6.82    0.00    0.00    0.00    2.46    0.00    3.20    0.00    4.72     4.7     5.6    6.30    6.40    6.23    5.92    5.82    5.79    9.92    0.71    0.57    0.55    0.55    0.55    0.53    0.46    0.38   14.64    5.36    6.21    6.85    6.95    6.79    6.45    6.29    6.17
 2015 131     6    20     1   117.8    92.8    24.9    2.92    7.78    0.44    0.00    0.00    2.92    0.00    4.74    0.00    3.75     4.1     5.2    5.99    6.25    6.31    6.32    6.47    6.59    9.66    0.74    0.59    0.57    0.56    0.56    0.53    0.42    0.35   13.40    4.82    5.74    6.56    6.82    6.87    6.85    6.89    6.94
 2015 132     7    20     1   114.5    89.9    24.7    3.33    8.44    0.93    0.00    0.00    3.33    0.05    7.87    0.00    3.91     3.9     4.9    5.73    6.00    6.08    6.10    6.26    6.37    9.40    0.75    0.61    0.58    0.58    0.57    0.54    0.43    0.37   13.31    4.69    5.50    6.31    6.58    6.65    6.64    6.70    6.74
 2015 133     8    20     1   114.3    90.1    24.1    3.77    9.37    1.22    0.00    0.00    3.77    0.14    8.19    0.00    4.35     3.9     4.8    5.69    5.96    6.04    6.06    6.24    6.34    9.03    0.76    0.62    0.59    0.58    0.58    0.55    0.45    0.38   13.38    4.70    5.45    6.28    6.54    6.62    6.61    6.68    6.73
 2015 134     9    20     1   112.6    89.1    23.5    4.19   10.39    1.46    0.00    0.00    4.19    0.25    9.94    0.00    4.89     3.9     4.7    5.54    5.80    5.89    5.91    6.08    6.19    8.61    0.76    0.62    0.59    0.59    0.58    0.55    0.46    0.39   13.50    4.66    5.33    6.13    6.39    6.47    6.46    6.54    6.58
 2015 135    10    20     1   112.6    89.9    22.7    4.61   11.55    1.60    0.00    0.00    4.61    0.40   10.10    0.00    4.23     4.0     4.9    5.79    6.16    6.13    5.96    6.07    6.16    8.14    0.76    0.62    0.60    0.59    0.59    0.56    0.46    0.40   12.37    4.71    5.47    6.38    6.75    6.71    6.52    6.54    6.56
 2015 136    11    20     1   110.2    87.7    22.5    5.01   12.12    1.99    0.00    0.00    5.01    0.46   12.41    0.00    4.46     3.9     4.6    5.52    5.89    5.93    5.85    5.95    6.05    7.96    0.77    0.63    0.61    0.60    0.59    0.56    0.47    0.41   12.43    4.62    5.27    6.13    6.49    6.52    6.40    6.42    6.45
 2015 137    12    20     1   108.8    86.8    22.0    5.43   12.98    2.24    0.00    0.00    5.43    0.63   13.82    0.00    4.81     3.8     4.5    5.36    5.72    5.81    5.78    5.89    5.99    7.65    0.77    0.63    0.61    0.61    0.59    0.56    0.47    0.41   12.46    4.56    5.13    5.97    6.33    6.40    6.34    6.36    6.40
 2015 138    13    20     1   108.2    86.9    21.3    5.86   14.07    2.36    0.00    0.00    5.86    0.84   14.52    0.00    5.35     3.8     4.4    5.27    5.62    5.74    5.76    5.86    5.95    7.25    0.76    0.63    0.61    0.61    0.59    0.56    0.47    0.42   12.59    4.54    5.06    5.88    6.23    6.33    6.31    6.33    6.37
 2015 139    14    60     2   146.7    88.2    58.5    6.31   15.53    2.41    0.00    0.11    6.31    1.11   14.52    0.00    5.42     4.2     4.5    5.30    5.62    5.74    5.81    5.87    5.96   28.54    0.75    0.62    0.61    0.60    0.59    0.50    0.43    0.38   33.96    4.94    5.15    5.91    6.22    6.33    6.32    6.30    6.34
 2015 140    15    60     2   147.8    90.0    57.8    6.76   17.57    2.59    0.00    0.22    6.76    1.28   14.52    0.00    6.24     4.2     4.6    5.33    5.63    5.76    5.84    5.89    5.96   28.28    0.76    0.61    0.60    0.60    0.58    0.46    0.39    0.36   34.52    4.96    5.19    5.94    6.22    6.34    6.30    6.28    6.32
 2015 141    16    60     2   147.9    92.3    55.6    7.21   20.27    2.75    0.00    0.34    7.21    1.56   14.57    0.00    7.41     4.1     4.5    5.26    5.59    5.80    5.93    6.03    6.12   27.19    0.78    0.61    0.60    0.59    0.52    0.42    0.36    0.33   34.60    4.91    5.09    5.86    6.18    6.32    6.35    6.40    6.45
 2015 142    17    60     2   147.7    95.5    52.2    7.68   23.76    2.84    0.00    0.46    7.68    2.08   14.57    0.00    7.02     4.5     4.8    5.71    6.19    6.03    6.01    6.04    6.12   25.51    0.78    0.60    0.59    0.53    0.47    0.38    0.34    0.31   32.53    5.30    5.44    6.30    6.72    6.50    6.39    6.38    6.42
 2015 143    18    60     2   146.2    95.5    50.7    8.13   25.56    3.15    0.00    0.59    8.13    2.21   15.96    0.00    7.75     4.4     4.7    5.46    5.96    5.92    6.03    6.12    6.20   24.66    0.80    0.61    0.60    0.54    0.47    0.35    0.31    0.29   32.41    5.22    5.27    6.06    6.50    6.40    6.38    6.43    6.49
 2015 144    19    60     2   145.2    96.9    48.3    8.59   28.09    3.34    0.00    0.71    8.59    2.61   16.79    0.00    8.91     4.4     4.5    5.31    5.81    5.88    6.06    6.16    6.24   23.35    0.79    0.62    0.60    0.54    0.47    0.33    0.29    0.27   32.26    5.18    5.16    5.92    6.36    6.35    6.39    6.45    6.51
 2015 145    20    60     2   144.5    99.3    45.1    9.06   31.20    3.44    0.00    0.84    9.06    3.38   16.98    0.00   10.40     4.3     4.5    5.23    5.73    5.93    6.11    6.20    6.28   21.67    0.78    0.61    0.60    0.55    0.43    0.30    0.28    0.26   32.08    5.12    5.08    5.84    6.28    6.36    6.41    6.48    6.54
 2015 146    21    60     2   143.8   102.2    41.6    9.54   34.63    3.47    0.00    0.96    9.54    4.35   16.98    0.00   12.11     4.3     4.4    5.21    5.70    6.00    6.14    6.19    6.27   19.79    0.75    0.60    0.59    0.54    0.39    0.29    0.26    0.25   31.90    5.06    5.03    5.80    6.24    6.39    6.43    6.46    6.51
 2015 147    22    60     2   143.5   108.5    35.0   10.03   41.17    3.47    0.00    1.08   10.03    5.02   16.98    0.00   13.46     5.8     4.9    5.30    5.79    6.01    6.14    6.18    6.25   16.39    0.66    0.53    0.58    0.48    0.36    0.27    0.25    0.24   29.85    6.41    5.42    5.89    6.27    6.37    6.41    6.43    6.49
 2015 148    23    60     2   143.5   109.8    33.7   10.51   42.76    3.47    0.00    1.20   10.51    5.44   16.98    0.00   13.85     5.8     4.8    5.24    5.79    6.10    6.24    6.33    6.36   15.75    0.67    0.53    0.57    0.43    0.33    0.25    0.24    0.23   29.60    6.43    5.35    5.82    6.22    6.42    6.50    6.57    6.59
 2015 149    24    60     2   142.7   111.2    31.5   11.01   44.95    3.47    0.00    1.31   11.01    6.61   16.98    0.00   13.08     6.6     5.2    5.42    5.87    6.11    6.24    6.32    6.35   14.68    0.66    0.52    0.50    0.39    0.30    0.24    0.23    0.22   27.76    7.26    5.76    5.93    6.26    6.41    6.48    6.55    6.57
 2015 150    25    60     2   142.3   112.0    30.3   11.48   46.33    3.47    0.00    1.42   11.48    7.09   17.24    0.00   13.44     6.5     5.2    5.35    5.85    6.17    6.32    6.41    6.47   14.09    0.67    0.52    0.50    0.36    0.28    0.23    0.22    0.21   27.53    7.17    5.68    5.86    6.21    6.46    6.55    6.62    6.68
 2015 151    26    60     2   141.4   112.9    28.4   11.97   48.16    3.47    0.00    1.53   11.97    8.31   17.30    0.00   14.13     6.3     5.1    5.31    5.88    6.21    6.35    6.44    6.50   13.11    0.66    0.52    0.50    0.33    0.27    0.22    0.21    0.21   27.25    7.00    5.58    5.81    6.21    6.48    6.58    6.65    6.71
 2015 152    27    60     2   139.9   113.9    26.0   12.45   50.34    3.55    0.00    1.65   12.45   10.08   17.30    0.00   14.05     6.9     5.1    5.39    5.88    6.21    6.34    6.42    6.48   11.88    0.64    0.50    0.45    0.31    0.25    0.22    0.21    0.20   25.93    7.51    5.59    5.84    6.19    6.46    6.55    6.63    6.68
 2015 153    28    60     2   139.2   114.2    25.0   12.94   51.64    3.86    0.00    1.74   12.94   10.85   17.30    0.00   14.15     6.7     5.0    5.40    5.94    6.29    6.43    6.48    6.47   11.38    0.63    0.51    0.41    0.29    0.24    0.21    0.20    0.20   25.53    7.38    5.54    5.80    6.23    6.53    6.64    6.68    6.67
 2015 154    29    60     2   137.7   114.5    23.2   13.44   53.34    4.01    0.00    1.84   13.44   12.59   17.30    0.00   14.58     6.5     4.9    5.42    5.97    6.33    6.44    6.47    6.45   10.48    0.61    0.50    0.37    0.27    0.23    0.20    0.20    0.20   25.06    7.13    5.44    5.79    6.24    6.56    6.65    6.66    6.65
 2015 155    30    60     2   135.6   114.8    20.8   13.94   55.45    4.06    0.00    1.93   13.94   15.08   17.30    0.00   15.07     6.3     4.9    5.40    5.97    6.33    6.44    6.46    6.44    9.32    0.52    0.45    0.34    0.25    0.22    0.20    0.20    0.19   24.39    6.82    5.35    5.74    6.22    6.55    6.64    6.65    6.63
 2015 156    31    60     2   133.9   116.8    17.2   14.44   58.79    4.06    0.00    2.01   14.44   17.16   17.30    0.00   14.26     7.7     5.3    5.47    5.96    6.33    6.43    6.45    6.43    7.46    0.45    0.41    0.31    0.24    0.21    0.20    0.19    0.19   21.72    8.14    5.66    5.79    6.20    6.55    6.63    6.64    6.62
 2015 157    32    60     2   133.3   116.8    16.5   14.93   59.69    4.06    0.00    2.09   14.93   18.19   17.30    0.00   14.26     7.5     5.2    5.46    6.03    6.44    6.56    6.44    6.42    7.12    0.47    0.42    0.29    0.23    0.21    0.19    0.19    0.19   21.38    7.99    5.59    5.75    6.26    6.64    6.76    6.63    6.61
 2015 158    33    60     2   131.1   115.8    15.3   15.41   60.82    4.06    0.00    2.17   15.41   20.82   17.30    0.00   14.27     7.2     5.0    5.40    6.02    6.46    6.60    6.47    6.41    6.43    0.49    0.42    0.27    0.22    0.20    0.19    0.19    0.19   20.70    7.64    5.39    5.67    6.24    6.67    6.79    6.65    6.60
 2015 159    34   100     3   160.3   115.1    45.2   15.90   62.10    4.06    0.00    9.11   15.90   23.45   17.30    0.00   14.47     6.8     4.9    5.34    6.00    6.46    6.59    6.46    6.40   23.47    0.49    0.39    0.26    0.22    0.20    0.19    0.19    0.19   37.94    7.30    5.28    5.60    6.22    6.66    6.78    6.64    6.59
 2015 160    35   100     3   155.7   120.7    34.9   16.39   68.99    4.06    0.00   12.93   16.39   26.00   17.30    0.00   14.73     8.1     6.1    5.60    6.05    6.46    6.59    6.45    6.40   17.74    0.45    0.36    0.25    0.21    0.20    0.19    0.19    0.18   32.47    8.54    6.44    5.84    6.26    6.66    6.77    6.64    6.58
 2015 161    36   100     3   153.2   121.2    32.0   16.87   70.41    4.06    0.00   14.84   16.87   27.28   17.30    0.00   15.05     7.9     5.9    5.47    6.00    6.52    6.68    6.76    6.46   15.89    0.57    0.38    0.26    0.20    0.19    0.19    0.18    0.18   30.94    8.44    6.33    5.73    6.20    6.71    6.87    6.95    6.64
 2015 162    37   100     3   149.7   121.3    28.4   17.36   72.22    4.06    0.00   16.22   17.36   29.93   17.30    0.00   15.40     7.6     5.8    5.37    5.96    6.52    6.70    6.79    6.72   13.84    0.60    0.40    0.27    0.20    0.19    0.19    0.18    0.18   29.24    8.18    6.16    5.65    6.16    6.71    6.89    6.97    6.91
 2015 163    38   100     3   145.9   121.4    24.5   17.85   74.28    4.06    0.00   17.58   17.85   32.94   17.30    0.00   12.84     8.6     6.6    5.84    6.07    6.56    6.70    6.78    6.72   11.63    0.59    0.42    0.26    0.20    0.19    0.18    0.18    0.18   24.47    9.16    7.06    6.10    6.27    6.75    6.88    6.97    6.90
 2015 164    39   100     3   143.2   120.6    22.6   18.32   75.27    4.06    0.00   18.60   18.32   34.21   18.19    0.00   12.93     8.3     6.5    5.74    5.93    6.50    6.73    6.84    6.89   10.49    0.60    0.44    0.28    0.21    0.19    0.18    0.18    0.18   23.42    8.88    6.90    6.02    6.15    6.69    6.91    7.02    7.08
 2015 165    40   100     3   138.7   118.8    19.9   18.82   76.57    4.26    0.00   19.51   18.82   37.61   18.71    0.00   12.96     7.8     6.1    5.60    5.84    6.49    6.75    6.86    6.92    8.91    0.58    0.46    0.29    0.23    0.19    0.18    0.18    0.18   21.88    8.35    6.61    5.89    6.07    6.68    6.93    7.04    7.10
 2015 166    41   100     3   135.1   117.9    17.3   19.31   78.02    4.34    0.00   20.23   19.31   40.86   18.72    0.00   13.19     7.3     5.9    5.49    5.83    6.51    6.77    6.89    6.95    7.44    0.55    0.46    0.30    0.22    0.19    0.18    0.18    0.18   20.63    7.90    6.35    5.79    6.05    6.70    6.95    7.07    7.13
 2015 167    42   100     3   131.8   118.0    13.7   19.82   80.56    4.34    0.00   20.75   19.82   44.20   18.72    0.00    9.73     7.8     6.9    6.34    6.53    6.78    6.85    6.90    6.94    5.51    0.47    0.47    0.31    0.21    0.18    0.18    0.18    0.18   15.24    8.30    7.38    6.66    6.74    6.97    7.03    7.08    7.12
 2015 168    43   100     3   128.9   115.8    13.2   20.31   81.11    4.51    0.00   21.07   20.31   45.13   20.64    0.00    9.72     7.5     6.6    6.16    6.32    6.60    6.77    6.92    6.99    5.06    0.49    0.49    0.33    0.24    0.20    0.20    0.18    0.18   14.78    8.00    7.09    6.49    6.55    6.80    6.97    7.10    7.17
 2015 169    44   100     3   125.3   113.2    12.1   20.82   81.88    4.60    0.00   21.32   20.82   47.80   21.80    0.00    9.55     7.0     6.3    5.97    6.16    6.49    6.75    6.93    7.01    4.38    0.51    0.50    0.35    0.25    0.22    0.20    0.18    0.18   13.93    7.55    6.76    6.32    6.41    6.71    6.95    7.11    7.19
 2015 170    45   100     3   122.1   111.2    10.9   21.34   82.71    4.65    0.00   21.52   21.34   51.28   21.80    0.00    6.94     6.8     6.6    6.44    6.54    6.79    6.88    6.96    7.01    3.64    0.52    0.51    0.36    0.27    0.24    0.19    0.18    0.18   10.58    7.29    7.15    6.80    6.81    7.03    7.07    7.14    7.19
 2015 171    46   100     3   119.3   108.7    10.6   21.82   83.16    4.82    0.00   21.69   21.82   52.12   23.92    0.00    6.95     6.5     6.3    6.21    6.33    6.59    6.76    6.94    7.04    3.36    0.53    0.52    0.38    0.29    0.25    0.21    0.18    0.18   10.31    6.99    6.84    6.60    6.62    6.85    6.97    7.12    7.22
 2015 172    47   100     3   115.7   105.8     9.9   22.32   83.71    5.08    0.00   21.83   22.32   54.55   25.15    0.00    6.76     6.0     6.0    6.00    6.15    6.46    6.71    6.94    7.06    2.92    0.52    0.51    0.40    0.31    0.27    0.22    0.18    0.18    9.69    6.54    6.48    6.40    6.45    6.73    6.93    7.12    7.24
 2015 173    48   100     3   112.2   103.2     9.1   22.81   84.33    5.21    0.00   21.96   22.81   57.71   25.68    0.00    6.52     5.5     5.6    5.80    6.01    6.38    6.70    6.95    7.08    2.43    0.51    0.51    0.41    0.32    0.28    0.22    0.18    0.18    8.95    6.06    6.12    6.21    6.33    6.67    6.92    7.13    7.26
 2015 174    49   100     3   109.8   101.5     8.4   23.28   84.94    5.25    0.00   22.07   23.28   60.42   25.68    0.00    4.50     5.2     5.8    6.25    6.49    6.56    6.79    6.97    7.07    2.02    0.51    0.51    0.42    0.33    0.29    0.21    0.18    0.18    6.52    5.67    6.34    6.67    6.82    6.86    7.00    7.15    7.25
 2015 175    50   100     3   107.2    98.9     8.3   23.73   85.26    5.61    0.00   22.17   23.73   61.06   27.66    0.00    4.48     4.9     5.5    5.99    6.23    6.39    6.69    6.95    7.10    1.88    0.53    0.52    0.43    0.35    0.31    0.23    0.18    0.18    6.36    5.41    6.03    6.42    6.57    6.70    6.92    7.13    7.28
 2015 176    51   100     3   104.4    96.5     7.9   24.19   85.68    5.81    0.00   22.26   24.19   62.84   28.84    0.00    4.34     4.6     5.2    5.76    6.04    6.30    6.66    6.95    7.11    1.66    0.52    0.51    0.45    0.36    0.32    0.22    0.18    0.18    6.00    5.07    5.71    6.21    6.40    6.61    6.88    7.13    7.29
 2015 177    52   100     3   102.5    95.0     7.5   24.65   86.16    5.91    0.00   22.36   24.65   65.05   28.84    0.00    3.57     4.3     5.3    5.77    6.01    6.34    6.70    6.93    7.10    1.40    0.51    0.51    0.45    0.37    0.33    0.22    0.18    0.18    4.96    4.85    5.80    6.22    6.38    6.67    6.92    7.12    7.28
 2015 178    53   100     3   100.5    93.0     7.5   25.10   86.51    6.14    0.00   22.44   25.10   65.78   30.22    0.00    3.54     4.1     5.0    5.53    5.85    6.24    6.66    6.95    7.14    1.31    0.52    0.52    0.46    0.38    0.34    0.21    0.18    0.18    4.85    4.64    5.52    5.99    6.23    6.58    6.87    7.14    7.32
 2015 179    54   100     3    98.4    91.2     7.2   25.56   86.92    6.26    0.00   22.52   25.56   67.46   30.93    0.00    3.45     3.9     4.7    5.32    5.72    6.20    6.65    6.96    7.15    1.15    0.52    0.51    0.47    0.39    0.34    0.21    0.18    0.18    4.60    4.37    5.22    5.79    6.11    6.54    6.86    7.14    7.34
 2015 180    55   100     3    96.6    89.7     6.9   26.02   87.36    6.30    0.00   22.60   26.02   69.31   31.14    0.00    3.35     3.6     4.5    5.16    5.65    6.17    6.67    6.98    7.17    0.98    0.51    0.51    0.48    0.39    0.35    0.21    0.18    0.18    4.34    4.12    4.97    5.64    6.04    6.53    6.88    7.16    7.36
 2015 181    56   100     3    95.0    88.6     6.5   26.48   87.94    6.31    0.00   22.68   26.48   71.30   31.14    0.00    2.24     3.2     4.3    5.40    6.15    6.41    6.75    6.96    7.16    0.80    0.47    0.51    0.48    0.40    0.33    0.20    0.18    0.18    3.04    3.63    4.82    5.88    6.55    6.74    6.95    7.15    7.34
 2015 182    57   100     3    92.9    86.4     6.5   26.91   88.20    6.51    0.00   22.77   26.91   71.68   33.02    0.00    2.26     3.0     4.1    5.13    5.85    6.24    6.63    6.96    7.19    0.75    0.49    0.52    0.49    0.41    0.34    0.22    0.18    0.18    3.00    3.52    4.59    5.62    6.27    6.58    6.85    7.15    7.37
 2015 183    58   100     3    91.0    84.6     6.4   27.38   88.56    6.63    0.00   22.84   27.38   72.74   34.10    0.00    2.23     2.9     3.8    4.92    5.65    6.14    6.60    6.96    7.19    0.65    0.50    0.51    0.50    0.42    0.35    0.21    0.18    0.18    2.88    3.36    4.36    5.43    6.08    6.49    6.82    7.14    7.38
 2015 184    59   100     3    89.7    83.5     6.3   27.85   88.97    6.69    0.00   22.92   27.85   74.38   34.10    0.00    1.84     2.7     3.8    4.88    5.61    6.20    6.64    6.95    7.18    0.54    0.51    0.51    0.51    0.43    0.36    0.21    0.18    0.18    2.38    3.19    4.31    5.39    6.05    6.55    6.85    7.13    7.37
 2015 185    60   100     3    88.3    82.0     6.3   28.33   89.33    6.80    0.00   23.00   28.33   74.94   35.27    0.00    1.86     2.6     3.6    4.65    5.43    6.08    6.60    6.97    7.22    0.50    0.52    0.52    0.52    0.44    0.36    0.21    0.18    0.18    2.36    3.10    4.11    5.17    5.87    6.45    6.81    7.15    7.41
 2015 186    61   100     3    86.9    80.8     6.2   28.83   89.75    6.88    0.00   23.08   28.83   76.10   35.81    0.00    1.85     2.4     3.4    4.48    5.31    6.03    6.60    6.98    7.24    0.46    0.52    0.51    0.50    0.44    0.37    0.20    0.18    0.18    2.31    2.95    3.90    4.98    5.76    6.40    6.81    7.16    7.42
 2015 187    62   100     3    85.9    79.8     6.0   29.34   90.26    6.90    0.00   23.15   29.34   77.53   35.85    0.00    1.78     2.3     3.2    4.33    5.25    6.08    6.63    7.00    7.26    0.43    0.51    0.51    0.50    0.45    0.34    0.20    0.18    0.18    2.20    2.78    3.71    4.84    5.70    6.42    6.83    7.19    7.45
 2015 188    63   100     3    85.1    79.2     5.9   29.84   90.78    6.91    0.00   23.21   29.84   78.69   35.85    0.00    1.72     2.2     3.1    4.26    5.23    6.12    6.63    7.00    7.26    0.40    0.51    0.50    0.50    0.45    0.32    0.20    0.18    0.18    2.12    2.66    3.59    4.76    5.68    6.44    6.83    7.18    7.44
 2015 189    64   100     3    85.0    79.4     5.7   30.33   91.48    6.91    0.00   23.25   30.33   79.25   35.85    0.00    1.71     2.2     3.0    4.28    5.23    6.16    6.65    7.01    7.27    0.36    0.47    0.50    0.46    0.45    0.30    0.19    0.18    0.18    2.07    2.64    3.55    4.74    5.68    6.46    6.84    7.20    7.46
 2015 190    65   100     3    85.5    79.9     5.6   30.78   92.03    6.91    0.00   23.26   30.78   79.25   35.85    0.00    1.73     2.2     3.1    4.35    5.29    6.22    6.67    7.03    7.29    0.36    0.48    0.51    0.43    0.42    0.28    0.19    0.18    0.18    2.09    2.67    3.58    4.78    5.71    6.50    6.87    7.22    7.47
 2015 191    66   100     3    84.5    79.2     5.3   31.21   92.67    6.91    0.00   23.33   31.21   80.62   35.85    0.00    1.39     2.1     3.1    4.33    5.31    6.23    6.67    7.03    7.28    0.33    0.45    0.48    0.40    0.39    0.27    0.19    0.18    0.18    1.72    2.59    3.54    4.73    5.70    6.50    6.86    7.21    7.46
 2015 192    67   100     3    84.1    78.9     5.2   31.64   93.05    6.91    0.00   23.42   31.64   81.31   35.85    0.00    1.44     2.1     2.9    4.14    5.25    6.24    6.75    7.12    7.38    0.30    0.47    0.49    0.41    0.37    0.26    0.19    0.19    0.19    1.74    2.54    3.38    4.54    5.63    6.50    6.94    7.31    7.57
 2015 193    68   100     3    83.5    78.4     5.1   32.09   93.52    6.91    0.00   23.50   32.09   82.28   35.85    0.00    1.45     2.0     2.7    4.05    5.24    6.25    6.77    7.14    7.40    0.27    0.49    0.49    0.38    0.35    0.25    0.19    0.19    0.19    1.72    2.45    3.23    4.43    5.59    6.51    6.96    7.33    7.59
 2015 194    69   100     3    82.7    77.7     5.0   32.56   94.03    6.92    0.00   23.58   32.56   83.47   35.85    0.00    1.00     1.6     2.6    4.12    5.57    6.41    6.82    7.13    7.38    0.25    0.50    0.50    0.36    0.33    0.24    0.19    0.19    0.19    1.25    2.14    3.06    4.47    5.90    6.66    7.01    7.31    7.57
 2015 195    70   100     3    81.2    76.1     5.1   33.05   94.32    6.93    0.00   23.67   33.05   83.65   37.53    0.00    1.04     1.6     2.5    3.91    5.28    6.18    6.73    7.13    7.42    0.22    0.52    0.51    0.38    0.35    0.26    0.19    0.18    0.18    1.26    2.12    2.98    4.29    5.63    6.44    6.92    7.32    7.61
 2015 196    71   100     3    80.2    75.1     5.1   33.58   94.69    6.97    0.00   23.76   33.58   84.20   38.40    0.00    1.06     1.5     2.4    3.78    5.10    6.06    6.71    7.13    7.43    0.19    0.52    0.51    0.39    0.36    0.27    0.19    0.18    0.18    1.25    2.05    2.90    4.17    5.46    6.34    6.90    7.31    7.62
 2015 197    72   100     3    79.7    74.7     5.1   34.11   95.15    6.99    0.00   23.85   34.11   84.95   38.56    0.00    1.08     1.5     2.3    3.69    5.01    6.06    6.72    7.15    7.46    0.17    0.51    0.51    0.40    0.37    0.25    0.18    0.18    0.18    1.24    2.00    2.83    4.09    5.38    6.31    6.91    7.34    7.64
 2015 198    73   100     3    79.7    74.8     4.9   34.64   95.72    6.99    0.00   23.93   34.64   85.44   38.56    0.00    0.86     1.5     2.4    3.85    5.09    6.14    6.73    7.13    7.43    0.15    0.45    0.51    0.41    0.38    0.24    0.18    0.18    0.18    1.00    1.91    2.86    4.25    5.47    6.38    6.91    7.31    7.61
 2015 199    74   100     3    78.6    73.6     5.0   35.15   96.07    7.10    0.00   24.01   35.15   85.63   39.75    0.00    0.90     1.4     2.3    3.63    4.85    5.99    6.69    7.16    7.48    0.14    0.48    0.53    0.43    0.39    0.23    0.18    0.18    0.18    1.04    1.90    2.79    4.06    5.24    6.22    6.88    7.34    7.66
 2015 200    75   100     3    78.2    73.1     5.0   35.65   96.45    7.15    0.00   24.07   35.65   85.78   40.43    0.00    0.96     1.4     2.2    3.53    4.74    5.94    6.68    7.16    7.49    0.13    0.49    0.53    0.44    0.39    0.22    0.18    0.18    0.18    1.08    1.91    2.75    3.96    5.14    6.16    6.86    7.34    7.67
 2015 201    76   100     3    78.4    73.3     5.1   36.15   96.85    7.18    0.00   24.14   36.15   85.80   40.59    0.00    1.03     1.5     2.2    3.50    4.71    5.94    6.69    7.18    7.51    0.12    0.51    0.54    0.44    0.40    0.22    0.18    0.18    0.18    1.15    1.96    2.77    3.94    5.11    6.15    6.87    7.36    7.69
 2015 202    77   100     3    78.9    73.8     5.1   36.65   97.32    7.19    0.00   24.15   36.65   85.80   40.59    0.00    1.13     1.5     2.3    3.52    4.80    5.97    6.67    7.15    7.48    0.14    0.52    0.54    0.45    0.37    0.21    0.18    0.18    0.18    1.28    2.02    2.82    3.97    5.17    6.18    6.85    7.33    7.66

*DSSAT Cropping System Model Ver. 4.7.5.007 -  JAN 21, 2026 10:11:01
!                                                                                                                              NO3 (ppm) at soil dep. (cm):                                            NH4 (ppm) at soil dep. (cm):                                            Total Inorganic N @dep(ppm):
!                                                                                                                              0-10   10-20   20-30   30-40   40-50   50-60   60-70   70-80   80-90    0-10   10-20   20-30   30-40   40-50   50-60   60-70   70-80   80-90    0-10   10-20   20-30   30-40   40-50   50-60   60-70   70-80   80-90
@YEAR DOY   DAS  NAPC  NI#M    NIAD    NITD    NHTD    NMNC    NITC    NDNC    NIMC    AMLC   NNMNC    NUCM    NLCC    TDFC    NI1D    NI2D    NI3D    NI4D    NI5D    NI6D    NI7D    NI8D    NI9D    NH1D    NH2D    NH3D    NH4D    NH5D    NH6D    NH7D    NH8D    NH9D    NT1D    NT2D    NT3D    NT4D    NT5D    NT6D    NT7D    NT8D    NT9D    
 2015 147     0     0     0   100.1    90.3     9.8    0.00    0.00    0.00    0.00    0.00    0.00    0.00    0.00    0.00    5.50     5.5     5.5    5.50    5.50    5.50    5.50    5.50    5.50    0.60    0.60    0.60    0.60    0.60    0.60    0.60    0.60    0.60    6.10    6.10    6.10    6.10    6.10    6.10    6.10    6.10    6.10
 2015 148     1    20     1   114.7    92.0    22.7    0.53    1.77    0.00    0.00    0.00    0.53    0.00    0.00    0.00    4.13     5.6     6.2    6.23    5.79    5.66    5.63    5.61    5.61    8.54    0.53    0.53    0.52    0.52    0.52    0.52    0.52    0.52   12.66    6.08    6.74    6.76    6.31    6.18    6.15    6.13    6.13
 2015 149     2    20     1   118.0    92.2    25.9    1.02    3.08    0.00    0.00    0.00    1.02    0.00    1.16    0.00    4.62     5.4     6.0    6.07    5.73    5.70    5.69    5.69    5.69   10.54    0.54    0.54    0.53    0.52    0.46    0.46    0.46    0.47   15.17    5.90    6.50    6.60    6.26    6.16    6.16    6.16    6.16
 2015 150     3    20     1   119.3    93.4    25.9    1.52    4.78    0.00    0.00    0.00    1.52    0.00    1.63    0.00    5.41     5.3     5.8    5.96    5.72    5.77    5.77    5.77    5.77   10.69    0.61    0.55    0.54    0.52    0.42    0.42    0.42    0.42   16.10    5.87    6.34    6.49    6.24    6.19    6.19    6.19    6.19
 2015 151     4    20     1   120.2    95.3    24.8    2.01    6.77    0.00    0.00    0.00    2.01    0.00    1.71    0.00    6.36     5.2     5.7    5.89    5.78    5.84    5.84    5.84    5.84   10.25    0.65    0.55    0.54    0.46    0.38    0.38    0.38    0.38   16.60    5.88    6.24    6.43    6.25    6.21    6.22    6.22    6.22
 2015 152     5    20     1   120.8    97.4    23.4    2.50    8.82    0.00    0.00    0.00    2.50    0.00    1.71    0.00    7.39     5.2     5.6    5.86    5.86    5.90    5.88    5.85    5.85    9.61    0.66    0.55    0.53    0.42    0.34    0.35    0.35    0.35   17.00    5.90    6.19    6.40    6.28    6.25    6.22    6.20    6.20
 2015 153     6    20     1   121.3    99.6    21.7    2.99   11.05    0.02    0.00    0.00    2.99    0.00    1.71    0.00    8.45     5.3     5.6    5.91    5.89    5.91    5.88    5.86    5.85    8.93    0.60    0.55    0.48    0.38    0.32    0.32    0.32    0.32   17.38    5.94    6.17    6.39    6.27    6.23    6.20    6.18    6.18
 2015 154     7    20     1   121.7   103.1    18.7    3.48   14.61    0.02    0.00    0.00    3.48    0.10    1.71    0.00   10.27     5.4     5.7    5.95    5.90    5.91    5.89    5.86    5.86    7.49    0.54    0.49    0.43    0.35    0.30    0.30    0.30    0.30   17.76    5.94    6.15    6.37    6.25    6.21    6.18    6.16    6.15
 2015 155     8    20     1   122.1   106.1    16.0    3.98   17.73    0.02    0.00    0.00    3.98    0.22    1.71    0.00    8.83     6.5     6.6    6.52    6.11    5.98    5.94    5.91    5.90    6.25    0.48    0.44    0.39    0.32    0.28    0.28    0.28    0.28   15.08    6.96    7.03    6.91    6.43    6.25    6.21    6.19    6.18
 2015 156     9    20     1   122.5   106.9    15.6    4.46   18.58    0.02    0.00    0.00    4.46    0.29    1.71    0.00    9.10     6.3     6.3    6.39    6.12    6.10    6.11    6.11    6.10    6.07    0.50    0.46    0.40    0.29    0.26    0.26    0.26    0.26   15.17    6.83    6.81    6.79    6.42    6.36    6.37    6.38    6.36
 2015 157    10    20     1   122.5   107.5    15.0    4.95   19.60    0.02    0.00    0.00    4.95    0.49    2.00    0.00    9.57     6.2     6.2    6.30    6.17    6.15    6.16    6.16    6.15    5.78    0.51    0.47    0.41    0.28    0.25    0.25    0.25    0.25   15.34    6.74    6.65    6.71    6.44    6.39    6.40    6.40    6.40
 2015 158    11    20     1   122.8   108.4    14.4    5.43   20.72    0.02    0.00    0.00    5.43    0.68    2.00    0.00   10.17     6.2     6.1    6.25    6.21    6.19    6.20    6.20    6.16    5.43    0.52    0.48    0.41    0.26    0.24    0.24    0.24    0.24   15.59    6.68    6.55    6.67    6.47    6.42    6.43    6.43    6.40
 2015 159    12    20     1   123.1   109.5    13.6    5.90   21.95    0.02    0.00    0.00    5.90    0.89    2.00    0.00   10.85     6.1     6.0    6.27    6.25    6.20    6.18    6.18    6.15    5.06    0.52    0.48    0.38    0.25    0.23    0.23    0.23    0.23   15.91    6.65    6.49    6.65    6.50    6.43    6.41    6.41    6.37
 2015 160    13    20     1   123.3   110.6    12.7    6.38   23.26    0.03    0.00    0.00    6.38    1.16    2.00    0.00    8.66     7.0     6.9    7.02    6.46    6.24    6.17    6.16    6.13    4.67    0.47    0.48    0.34    0.24    0.22    0.22    0.22    0.22   13.33    7.47    7.35    7.36    6.70    6.46    6.39    6.39    6.35
 2015 161    14    20     1   123.0   110.5    12.5    6.84   23.86    0.27    0.00    0.00    6.84    1.25    2.43    0.00    8.84     6.8     6.6    6.82    6.39    6.30    6.30    6.31    6.30    4.55    0.49    0.50    0.36    0.25    0.21    0.21    0.21    0.22   13.38    7.28    7.08    7.18    6.65    6.51    6.52    6.53    6.52
 2015 162    15    20     1   122.4   110.2    12.2    7.32   24.61    0.42    0.00    0.00    7.32    1.56    3.01    0.00    9.11     6.6     6.4    6.68    6.36    6.34    6.34    6.34    6.34    4.33    0.50    0.51    0.37    0.27    0.21    0.21    0.21    0.21   13.44    7.14    6.89    7.05    6.63    6.54    6.55    6.55    6.55
 2015 163    16    60     2   160.7   110.7    50.0    7.80   25.52    0.50    0.00    0.11    7.80    1.99    3.01    0.00    9.59     6.5     6.3    6.58    6.40    6.37    6.37    6.38    6.37   25.81    0.51    0.51    0.38    0.25    0.20    0.20    0.20    0.21   35.41    7.02    6.76    6.96    6.65    6.58    6.58    6.58    6.58
 2015 164    17    60     2   161.7   114.1    47.6    8.28   29.20    0.54    0.00    0.22    8.28    2.48    3.01    0.00   11.74     6.4     6.2    6.53    6.44    6.39    6.35    6.36    6.35   24.47    0.51    0.51    0.39    0.24    0.20    0.20    0.20    0.20   36.21    6.95    6.68    6.91    6.68    6.59    6.55    6.56    6.55
 2015 165    18    60     2   161.8   117.8    44.0    8.76   33.21    0.54    0.00    0.33    8.76    3.00    3.01    0.00   10.89     7.4     7.1    7.23    6.64    6.43    6.33    6.33    6.33   22.55    0.46    0.51    0.36    0.23    0.20    0.20    0.20    0.20   33.43    7.89    7.63    7.59    6.87    6.62    6.53    6.53    6.52
 2015 166    19    60     2   161.2   118.5    42.7    9.23   34.80    0.82    0.00    0.44    9.23    3.22    3.49    0.00   11.56     7.3     6.8    7.03    6.58    6.47    6.47    6.48    6.47   21.75    0.51    0.52    0.37    0.25    0.19    0.19    0.19    0.19   33.31    7.76    7.36    7.40    6.82    6.67    6.66    6.67    6.67
 2015 167    20    60     2   160.3   119.9    40.4    9.72   37.22    1.00    0.00    0.56    9.72    3.94    3.94    0.00   12.75     7.1     6.6    6.88    6.56    6.51    6.50    6.51    6.50   20.42    0.53    0.53    0.38    0.23    0.19    0.19    0.19    0.19   33.18    7.63    7.16    7.26    6.79    6.70    6.69    6.70    6.70
 2015 168    21    60     2   159.8   122.1    37.7   10.21   40.03    1.10    0.00    0.66   10.21    4.69    3.94    0.00   14.26     7.0     6.5    6.78    6.60    6.54    6.54    6.54    6.50   18.89    0.54    0.53    0.39    0.23    0.19    0.19    0.19    0.19   33.15    7.52    7.02    7.17    6.82    6.73    6.73    6.73    6.69
 2015 169    22    60     2   159.3   124.5    34.9   10.70   42.97    1.15    0.00    0.76   10.70    5.55    3.94    0.00   15.84     6.9     6.4    6.72    6.63    6.57    6.52    6.53    6.48   17.28    0.53    0.52    0.40    0.22    0.19    0.19    0.19    0.19   33.12    7.43    6.92    7.12    6.85    6.75    6.71    6.72    6.67
 2015 170    23    60     2   158.7   129.4    29.3   11.19   48.54    1.15    0.00    0.86   11.19    6.59    3.94    0.00   18.92     6.8     6.3    6.71    6.61    6.55    6.50    6.51    6.46   14.23    0.47    0.51    0.36    0.21    0.19    0.19    0.19    0.19   33.15    7.29    6.84    7.07    6.82    6.73    6.69    6.69    6.65
 2015 171    24    60     2   158.0   133.4    24.6   11.67   53.20    1.15    0.00    0.95   11.67    7.70    3.94    0.00   21.40     6.7     6.3    6.70    6.59    6.53    6.48    6.49    6.44   11.72    0.43    0.46    0.33    0.21    0.18    0.18    0.18    0.18   33.13    7.15    6.76    7.03    6.79    6.71    6.67    6.67    6.62
 2015 172    25    60     2   157.7   136.6    21.1   12.15   56.96    1.15    0.00    0.99   12.15    8.43    3.94    0.00   23.09     6.7     6.3    6.72    6.61    6.55    6.51    6.51    6.47    9.82    0.40    0.42    0.31    0.20    0.18    0.18    0.18    0.18   32.90    7.10    6.74    7.03    6.82    6.74    6.69    6.70    6.65
 2015 173    26    60     2   157.4   139.2    18.3   12.61   60.01    1.15    0.00    1.03   12.61    9.10    3.94    0.00   20.39     9.8     6.9    6.84    6.63    6.58    6.53    6.54    6.49    8.31    0.37    0.39    0.29    0.20    0.18    0.18    0.18    0.18   28.70   10.16    7.28    7.13    6.83    6.76    6.72    6.72    6.68
 2015 174    27    60     2   156.9   139.2    17.8   13.05   60.78    1.15    0.00    1.12   13.05    9.97    3.94    0.00   20.29     9.7     6.8    6.84    6.76    6.73    6.61    6.52    6.47    8.01    0.39    0.40    0.27    0.20    0.18    0.18    0.18    0.18   28.30   10.04    7.21    7.11    6.96    6.91    6.80    6.70    6.66
 2015 175    28    60     2   155.8   138.9    16.9   13.50   61.77    1.15    0.00    1.21   13.50   11.41    3.94    0.00   20.51     9.4     6.7    6.82    6.77    6.76    6.69    6.50    6.45    7.49    0.41    0.40    0.26    0.20    0.18    0.18    0.18    0.18   28.01    9.81    7.10    7.08    6.97    6.94    6.87    6.68    6.63
 2015 176    29    60     2   154.8   139.0    15.8   13.94   62.90    1.15    0.00    1.29   13.94   12.76    3.94    0.00   20.84     9.2     6.7    6.81    6.79    6.76    6.67    6.48    6.44    6.93    0.42    0.38    0.25    0.19    0.18    0.18    0.18    0.18   27.77    9.60    7.04    7.07    6.98    6.94    6.86    6.67    6.62
 2015 177    30    60     2   153.7   139.1    14.6   14.38   64.18    1.15    0.00    1.38   14.38   14.27    3.94    0.00   15.36    11.0     8.6    7.92    7.13    6.85    6.65    6.46    6.42    6.28    0.39    0.35    0.24    0.19    0.18    0.18    0.18    0.18   21.64   11.43    8.94    8.17    7.33    7.03    6.83    6.65    6.60
 2015 178    31    60     2   153.2   138.9    14.3   14.81   64.74    1.38    0.00    1.45   14.81   14.85    3.94    0.00   15.24    10.7     8.4    7.74    7.04    6.84    6.81    6.83    6.80    6.03    0.41    0.37    0.26    0.21    0.18    0.18    0.18    0.19   21.27   11.07    8.75    8.00    7.25    7.03    7.00    7.01    6.99
 2015 179    32    60     2   151.0   137.4    13.6   15.25   65.46    1.52    0.00    1.53   15.25   16.63    4.61    0.00   15.23    10.2     8.1    7.57    6.97    6.87    6.84    6.85    6.86    5.57    0.43    0.39    0.28    0.23    0.19    0.19    0.19    0.19   20.81   10.64    8.50    7.85    7.19    7.05    7.02    7.04    7.05
 2015 180    33    60     2   148.8   136.1    12.7   15.68   66.27    1.58    0.00    1.60   15.68   18.88    4.80    0.00   15.33     9.8     7.8    7.41    6.92    6.89    6.87    6.88    6.89    5.04    0.44    0.40    0.29    0.24    0.19    0.19    0.19    0.19   20.37   10.23    8.25    7.71    7.16    7.08    7.05    7.06    7.07
 2015 181    34    60     2   147.0   135.3    11.8   16.12   67.24    1.59    0.00    1.68   16.12   21.04    4.80    0.00   11.83    10.5     9.1    8.16    7.14    6.96    6.85    6.86    6.87    4.49    0.41    0.41    0.30    0.23    0.19    0.19    0.19    0.19   16.32   10.87    9.48    8.46    7.38    7.15    7.04    7.05    7.06
 2015 182    35    60     2   145.1   133.5    11.6   16.55   67.68    1.94    0.00    1.75   16.55   21.74    6.02    0.00   11.78    10.0     8.7    7.95    7.09    6.94    6.91    6.93    6.94    4.30    0.43    0.42    0.32    0.25    0.20    0.19    0.19    0.19   16.07   10.48    9.14    8.27    7.34    7.14    7.10    7.11    7.12
 2015 183    36   100     3   174.6   131.6    43.0   17.00   68.31    2.14    0.00    7.75   17.00   23.87    6.69    0.00   11.76     9.6     8.3    7.74    7.03    6.96    6.94    6.95    6.96   22.13    0.45    0.44    0.33    0.26    0.20    0.19    0.19    0.19   33.88   10.00    8.78    8.07    7.29    7.16    7.13    7.14    7.15
 2015 184    37   100     3   169.3   131.9    37.4   17.46   70.98    2.23    0.00   11.18   17.46   27.52    6.69    0.00   11.43     9.8     8.5    7.74    7.07    6.99    6.93    6.94    6.95   18.87    0.46    0.44    0.34    0.27    0.20    0.19    0.19    0.19   30.30   10.23    8.99    8.09    7.34    7.19    7.12    7.13    7.14
 2015 185    38   100     3   165.2   131.2    34.0   17.92   72.38    2.50    0.00   13.61   17.92   28.94    7.45    0.00   11.83     9.4     8.2    7.58    7.02    7.01    7.00    7.01    7.02   16.82    0.54    0.46    0.35    0.28    0.19    0.19    0.19    0.19   28.65    9.94    8.65    7.93    7.30    7.21    7.18    7.19    7.20
 2015 186    39   100     3   161.9   130.6    31.3   18.40   74.34    2.69    0.00   14.04   18.40   31.93    7.75    0.00   12.47     8.9     7.8    7.40    6.99    7.04    7.03    7.04    7.04   15.25    0.56    0.47    0.36    0.27    0.19    0.18    0.18    0.18   27.72    9.49    8.30    7.76    7.26    7.23    7.21    7.22    7.23
 2015 187    40   100     3   159.5   131.1    28.4   18.89   76.56    2.76    0.00   14.39   18.89   34.45    7.75    0.00   13.34     8.6     7.6    7.30    7.01    7.07    7.05    7.04    7.04   13.61    0.56    0.47    0.37    0.25    0.19    0.18    0.18    0.18   26.95    9.17    8.08    7.67    7.27    7.26    7.24    7.23    7.22
 2015 188    41   100     3   157.4   132.0    25.4   19.38   78.99    2.77    0.00   14.61   19.38   36.82    7.75    0.00   14.23     8.4     7.5    7.26    7.01    7.07    7.06    7.05    7.04   12.09    0.50    0.44    0.34    0.24    0.19    0.18    0.18    0.18   26.31    8.90    7.91    7.60    7.25    7.26    7.24    7.23    7.23
 2015 189    42   100     3   156.0   134.4    21.6   19.84   82.58    2.77    0.00   14.71   19.84   38.54    7.75    0.00   15.62     8.4     7.4    7.24    7.01    7.09    7.07    7.06    7.06   10.03    0.46    0.41    0.32    0.23    0.19    0.18    0.18    0.18   25.65    8.89    7.81    7.56    7.25    7.27    7.25    7.24    7.24
 2015 190    43   100     3   155.5   135.2    20.3   20.27   84.00    2.77    0.00   14.80   20.27   39.46    7.75    0.00   15.96     8.4     7.4    7.25    7.03    7.11    7.09    7.08    7.08    9.30    0.47    0.38    0.30    0.23    0.19    0.18    0.18    0.18   25.26    8.86    7.83    7.55    7.26    7.29    7.27    7.26    7.26
 2015 191    44   100     3   153.3   135.9    17.4   20.69   86.38    2.77    0.00   14.99   20.69   41.85    7.75    0.00   12.09     9.5     8.7    8.36    7.50    7.23    7.11    7.07    7.07    7.72    0.45    0.37    0.29    0.22    0.19    0.18    0.18    0.18   19.81    9.90    9.10    8.65    7.73    7.42    7.29    7.26    7.26
 2015 192    45   100     3   151.3   134.6    16.8   21.10   86.95    2.77    0.00   15.20   21.10   42.90    8.87    0.00   12.17     9.1     8.4    8.12    7.38    7.19    7.17    7.19    7.20    7.28    0.47    0.38    0.30    0.24    0.20    0.19    0.19    0.19   19.44    9.56    8.78    8.42    7.62    7.39    7.36    7.37    7.38
 2015 193    46   100     3   147.7   132.3    15.5   21.53   87.76    2.77    0.00   15.39   21.53   46.02    9.58    0.00   12.10     8.6     8.0    7.87    7.28    7.20    7.20    7.21    7.22    6.49    0.48    0.40    0.32    0.25    0.20    0.19    0.19    0.19   18.59    9.06    8.40    8.19    7.53    7.40    7.38    7.40    7.41
 2015 194    47   100     3   144.8   130.7    14.1   21.98   88.72    2.77    0.00   15.54   21.98   49.29    9.58    0.00    8.71     8.4     8.5    8.51    8.06    7.65    7.32    7.24    7.21    5.65    0.49    0.41    0.33    0.27    0.20    0.19    0.19    0.19   14.37    8.91    8.95    8.85    8.33    7.85    7.51    7.42    7.40
 2015 195    48   100     3   142.1   128.5    13.6   22.47   89.29    2.77    0.00   15.70   22.47   50.27   11.59    0.00    8.87     8.1     8.2    8.23    7.84    7.51    7.28    7.26    7.27    5.27    0.51    0.43    0.35    0.28    0.22    0.20    0.18    0.18   14.14    8.57    8.60    8.59    8.13    7.73    7.48    7.44    7.45
 2015 196    49   100     3   138.2   125.6    12.6   22.99   90.10    3.07    0.00   15.84   22.99   53.14   12.71    0.00    8.85     7.5     7.7    7.94    7.63    7.42    7.25    7.28    7.30    4.59    0.51    0.44    0.37    0.30    0.24    0.22    0.18    0.18   13.45    8.05    8.16    8.30    7.93    7.66    7.47    7.47    7.48
 2015 197    50   100     3   134.9   123.5    11.4   23.52   91.05    3.20    0.00   15.96   23.52   56.35   13.05    0.00    8.90     7.1     7.4    7.70    7.48    7.36    7.29    7.31    7.33    3.88    0.51    0.45    0.38    0.32    0.25    0.21    0.18    0.18   12.78    7.60    7.81    8.08    7.79    7.61    7.50    7.50    7.51
 2015 198    51   100     3   132.5   122.8     9.7   24.05   92.62    3.24    0.00   16.06   24.05   59.18   13.05    0.00    7.29     7.2     7.9    8.02    7.53    7.41    7.32    7.31    7.32    2.95    0.46    0.46    0.39    0.33    0.26    0.21    0.18    0.18   10.23    7.68    8.37    8.41    7.86    7.67    7.53    7.49    7.50
 2015 199    52   100     3   130.4   120.9     9.5   24.55   93.11    3.42    0.00   16.16   24.55   60.22   14.29    0.00    7.35     6.9     7.5    7.71    7.40    7.37    7.35    7.37    7.39    2.76    0.48    0.48    0.40    0.34    0.28    0.20    0.18    0.18   10.10    7.39    7.97    8.11    7.74    7.64    7.55    7.55    7.57
 2015 200    53   100     3   127.6   118.6     9.0   25.05   93.70    3.51    0.00   16.24   25.05   62.69   14.95    0.00    7.24     6.5     7.1    7.44    7.28    7.34    7.38    7.40    7.41    2.42    0.50    0.49    0.41    0.35    0.29    0.20    0.18    0.18    9.66    7.00    7.57    7.85    7.63    7.62    7.58    7.58    7.59
 2015 201    54   100     3   125.5   117.1     8.5   25.55   94.36    3.55    0.00   16.33   25.55   65.07   15.03    0.00    7.19     6.2     6.8    7.25    7.22    7.37    7.41    7.42    7.44    2.09    0.51    0.49    0.42    0.35    0.27    0.20    0.18    0.18    9.28    6.68    7.27    7.67    7.57    7.64    7.60    7.60    7.62
 2015 202    55   100     3   123.4   116.0     7.4   26.04   95.50    3.55    0.00   16.42   26.04   67.59   15.03    0.00    7.35     5.9     6.5    7.14    7.19    7.36    7.39    7.40    7.42    1.60    0.47    0.50    0.39    0.33    0.26    0.19    0.18    0.18    8.95    6.39    7.02    7.52    7.52    7.62    7.58    7.58    7.60
 2015 203    56   100     3   121.7   115.1     6.5   26.54   96.58    3.55    0.00   16.50   26.54   69.76   15.03    0.00    7.43     5.7     6.3    7.04    7.17    7.36    7.38    7.39    7.40    1.25    0.43    0.46    0.36    0.31    0.25    0.19    0.18    0.18    8.68    6.15    6.79    7.39    7.47    7.61    7.57    7.57    7.59
 2015 204    57   100     3   120.3   114.4     5.9   27.04   97.57    3.55    0.00   16.54   27.04   71.57   15.03    0.00    5.26     6.0     7.0    7.50    7.33    7.43    7.41    7.42    7.43    1.01    0.40    0.42    0.33    0.29    0.24    0.19    0.18    0.18    6.26    6.37    7.43    7.84    7.62    7.67    7.60    7.60    7.61
 2015 205    58   100     3   119.3   113.5     5.9   27.54   97.96    3.55    0.00   16.62   27.54   72.36   15.64    0.00    5.30     5.7     6.7    7.22    7.21    7.49    7.53    7.54    7.55    0.94    0.43    0.44    0.35    0.30    0.23    0.19    0.18    0.18    6.24    6.14    7.11    7.57    7.50    7.72    7.71    7.72    7.73
 2015 206    59   100     3   117.6   111.9     5.7   28.07   98.48    3.55    0.00   16.71   28.07   74.22   15.98    0.00    5.29     5.4     6.3    6.97    7.17    7.51    7.56    7.57    7.58    0.82    0.45    0.46    0.36    0.28    0.22    0.19    0.18    0.18    6.11    5.83    6.80    7.33    7.45    7.73    7.74    7.75    7.76
 2015 207    60   100     3   116.0   110.5     5.5   28.60   99.04    3.55    0.00   16.79   28.60   76.24   15.98    0.00    5.22     5.1     6.1    6.81    7.17    7.54    7.59    7.56    7.56    0.69    0.46    0.46    0.37    0.26    0.21    0.18    0.18    0.18    5.92    5.56    6.53    7.19    7.44    7.76    7.77    7.74    7.74
 2015 208    61   100     3   114.5   109.5     5.0   29.14   99.87    3.55    0.00   16.88   29.14   78.23   15.98    0.00    5.23     4.9     5.9    6.73    7.15    7.53    7.57    7.54    7.55    0.51    0.42    0.47    0.34    0.25    0.21    0.18    0.18    0.18    5.74    5.34    6.33    7.07    7.39    7.74    7.75    7.72    7.72
 2015 209    62   100     3   112.9   108.4     4.5   29.69  100.72    3.55    0.00   16.97   29.69   80.23   15.98    0.00    3.72     4.7     6.1    7.36    7.40    7.59    7.55    7.51    7.52    0.39    0.39    0.43    0.31    0.23    0.20    0.18    0.18    0.18    4.11    5.07    6.51    7.67    7.64    7.79    7.73    7.69    7.69
 2015 210    63   100     3   112.0   107.4     4.7   30.20  101.06    3.55    0.00   17.03   30.20   80.64   16.89    0.00    3.70     4.5     5.8    7.04    7.21    7.58    7.66    7.69    7.70    0.38    0.41    0.45    0.33    0.25    0.20    0.18    0.18    0.18    4.09    4.91    6.24    7.37    7.46    7.77    7.84    7.86    7.88
 2015 211    64   100     3   110.7   106.0     4.7   30.75  101.46    3.55    0.00   17.13   30.75   81.83   17.48    0.00    3.74     4.3     5.5    6.78    7.08    7.57    7.69    7.72    7.73    0.34    0.43    0.46    0.35    0.27    0.19    0.18    0.18    0.18    4.08    4.71    5.99    7.13    7.35    7.77    7.87    7.89    7.91
 2015 212    65   100     3   109.3   104.7     4.7   31.29  101.95    3.55    0.00   17.22   31.29   83.66   17.48    0.00    3.69     4.0     5.3    6.58    7.03    7.60    7.72    7.75    7.74    0.30    0.45    0.47    0.36    0.25    0.19    0.18    0.18    0.18    4.00    4.48    5.75    6.94    7.28    7.78    7.90    7.93    7.91
 2015 213    66   100     3   108.0   103.6     4.5   31.85  102.61    3.55    0.00   17.32   31.85   85.41   17.48    0.00    2.78     3.8     5.3    6.88    7.21    7.64    7.69    7.72    7.70    0.23    0.41    0.47    0.37    0.24    0.19    0.18    0.18    0.18    3.02    4.22    5.82    7.26    7.45    7.83    7.87    7.89    7.88
 2015 214    67   100     3   106.9   102.3     4.5   32.37  102.95    3.69    0.00   17.42   32.37   85.84   18.48    0.00    2.87     3.7     5.1    6.53    7.01    7.58    7.76    7.81    7.82    0.21    0.43    0.49    0.39    0.25    0.18    0.18    0.18    0.18    3.07    4.12    5.55    6.92    7.26    7.76    7.93    7.98    8.00
 2015 215    68   100     3   105.8   101.2     4.6   32.92  103.35    3.76    0.00   17.52   32.92   86.90   18.93    0.00    2.92     3.5     4.8    6.28    6.88    7.57    7.78    7.84    7.85    0.18    0.45    0.50    0.40    0.27    0.18    0.18    0.17    0.18    3.09    3.98    5.34    6.68    7.15    7.75    7.96    8.01    8.03
 2015 216    69   100     3   104.7   100.1     4.6   33.46  103.83    3.80    0.00   17.61   33.46   88.41   18.93    0.00    2.15     3.1     4.7    6.42    7.32    7.73    7.81    7.81    7.83    0.15    0.46    0.51    0.41    0.25    0.18    0.18    0.17    0.17    2.30    3.60    5.19    6.83    7.58    7.91    7.99    7.99    8.00
 2015 217    70   100     3   103.1    98.4     4.7   33.99  104.12    3.94    0.00   17.69   33.99   88.71   20.48    0.00    2.25     3.1     4.4    6.07    7.03    7.54    7.79    7.88    7.91    0.14    0.48    0.52    0.43    0.27    0.20    0.17    0.17    0.17    2.39    3.54    4.97    6.50    7.30    7.74    7.97    8.06    8.09
 2015 218    71   100     3   101.9    97.2     4.8   34.53  104.52    4.05    0.00   17.76   34.53   89.57   21.18    0.00    2.30     2.9     4.3    5.84    6.84    7.47    7.80    7.91    7.94    0.13    0.50    0.52    0.44    0.29    0.19    0.17    0.17    0.17    2.42    3.44    4.78    6.29    7.13    7.66    7.97    8.08    8.11
 2015 219    72   100     3   101.5    96.7     4.8   35.07  104.96    4.09    0.00   17.83   35.07   90.46   21.18    0.00    2.36     2.9     4.2    5.72    6.74    7.48    7.82    7.94    7.96    0.12    0.51    0.51    0.45    0.30    0.19    0.17    0.17    0.17    2.48    3.38    4.67    6.17    7.04    7.67    8.00    8.11    8.13
 2015 220    73   100     3   101.4    96.7     4.7   35.64  105.55    4.10    0.00   17.89   35.64   91.04   21.18    0.00    1.86     2.8     4.3    6.04    6.88    7.56    7.79    7.90    7.92    0.12    0.46    0.51    0.45    0.31    0.19    0.17    0.17    0.17    1.98    3.27    4.77    6.49    7.19    7.75    7.97    8.07    8.09
 2015 221    74   100     3   100.2    95.4     4.8   36.18  105.91    4.29    0.00   17.95   36.18   91.31   22.33    0.00    1.94     2.7     4.1    5.71    6.62    7.43    7.83    7.99    8.03    0.11    0.48    0.52    0.47    0.33    0.18    0.17    0.17    0.17    2.05    3.22    4.58    6.18    6.95    7.62    8.00    8.16    8.20
 2015 222    75   100     3    99.9    95.0     4.9   36.74  106.34    4.39    0.00   18.01   36.74   91.50   22.92    0.00    2.05     2.7     4.0    5.54    6.52    7.41    7.84    8.01    8.06    0.11    0.50    0.53    0.48    0.34    0.18    0.17    0.17    0.17    2.17    3.23    4.49    6.01    6.85    7.59    8.01    8.18    8.23
 2015 223    76   100     3   100.3    95.5     4.8   37.32  106.89    4.45    0.00   18.07   37.32   91.55   22.92    0.00    1.65     2.5     3.9    5.65    7.07    7.62    7.89    7.97    8.02    0.11    0.51    0.53    0.48    0.31    0.18    0.17    0.17    0.17    1.77    3.06    4.45    6.13    7.37    7.80    8.06    8.15    8.19
 2015 224    77   100     3    98.6    93.6     5.0   37.86  107.20    4.61    0.00   18.13   37.86   91.55   24.89    0.00    1.72     2.5     3.7    5.35    6.72    7.37    7.81    8.03    8.11    0.11    0.53    0.55    0.50    0.33    0.20    0.17    0.17    0.17    1.83    3.04    4.29    5.85    7.04    7.57    7.98    8.20    8.28
