*SOIL WATER DAILY OUTPUT FILE

*DSSAT Cropping System Model Ver. 4.7.5.007 -  JAN 21, 2026 10:11:01
!                                                                                                 Soil water content (mm3/mm3) by soil depth (cm):
!                                                                                                0-10   10-20   20-30   30-40   40-50   50-60   60-70   70-80   80-90
@YEAR DOY   DAS  SWTD  SWXD   ROFC   DRNC   PREC  IR#C  IRRC  DTWT    MWTD  TDFD  TDFC   ROFD    SW1D    SW2D    SW3D    SW4D    SW5D    SW6D    SW7D    SW8D    SW9D
 2015 102     0   353    88      0      0      0     0     0     0    0.00   0.0   0.0   0.00   0.377   0.387   0.380   0.398   0.398   0.398   0.398   0.398   0.398
 2015 103     1   375   110      0      0      5     1    20    45    0.00   0.0   0.0   0.05   0.434   0.421   0.425   0.438   0.436   0.407   0.398   0.396   0.395
 2015 104     2   379   113      1      0     13     1    20    90    0.00   0.0   0.0   0.71   0.426   0.419   0.425   0.438   0.439   0.437   0.409   0.399   0.394
 2015 105     3   376   110      1      0     13     1    20    90    0.00   0.0   0.0   0.00   0.411   0.415   0.418   0.435   0.435   0.434   0.414   0.401   0.394
 2015 106     4   385   119      4      0     29     1    20    89    0.00   0.0   0.0   3.17   0.424   0.418   0.425   0.438   0.438   0.439   0.439   0.424   0.402
 2015 107     5   382   116      4      1     31     1    20    88    0.00   0.0   0.0   0.00   0.411   0.415   0.417   0.435   0.435   0.436   0.437   0.426   0.408
 2015 108     6   389   124      4      9     31     2    40    83    0.00   0.0   0.0   0.00   0.422   0.417   0.424   0.437   0.438   0.438   0.439   0.439   0.439
 2015 109     7   375   110      4     20     31     2    40    86    0.00   0.0   0.0   0.00   0.404   0.404   0.407   0.422   0.422   0.423   0.423   0.423   0.423
 2015 110     8   379   114      5     21     40     2    40    86    0.00   0.0   0.0   0.80   0.434   0.421   0.417   0.423   0.420   0.420   0.420   0.420   0.420
 2015 111     9   383   117      6     22     50     2    40    87    0.00   0.0   0.0   1.29   0.423   0.417   0.424   0.438   0.438   0.431   0.421   0.419   0.418
 2015 112    10   371   105      6     31     50     2    40    88    0.00   0.0   0.0   0.00   0.404   0.404   0.407   0.422   0.423   0.417   0.411   0.409   0.409
 2015 113    11   386   121      6     31     50     3    60    88    0.00   0.0   0.0   0.00   0.433   0.420   0.425   0.438   0.438   0.438   0.438   0.424   0.411
 2015 114    12   382   117      6     32     51     3    60    88    0.00   0.0   0.0   0.00   0.414   0.416   0.417   0.434   0.434   0.434   0.434   0.425   0.412
 2015 115    13   370   104      6     41     51     3    60    89    0.00   0.0   0.0   0.00   0.398   0.402   0.402   0.420   0.420   0.419   0.419   0.413   0.405
 2015 116    14   372   106      6     41     57     3    60    89    0.00   0.0   0.0   0.24   0.430   0.408   0.398   0.416   0.416   0.416   0.416   0.411   0.404
 2015 117    15   367   102      6     42     57     3    60    89    0.00   0.0   0.0   0.00   0.410   0.406   0.395   0.413   0.413   0.412   0.412   0.409   0.403
 2015 118    16   390   124      9     43     69     4    80    85    0.00   0.0   0.0   2.97   0.440   0.415   0.423   0.437   0.438   0.438   0.439   0.439   0.428
 2015 119    17   374   109      9     54     69     4    80    87    0.00   0.0   0.0   0.00   0.414   0.400   0.404   0.421   0.422   0.422   0.423   0.423   0.415
 2015 120    18   381   115      9     55     69     5    91    87    0.00   0.0   0.0   0.00   0.424   0.418   0.424   0.437   0.425   0.422   0.421   0.421   0.416
 2015 121    19   368   103      9     63     69     5    91    89    0.00   0.0   0.0   0.00   0.403   0.402   0.405   0.421   0.413   0.411   0.411   0.411   0.407
 2015 122    20   360    94      9     68     69     5    91    90    0.00   0.0   0.0   0.00   0.387   0.392   0.392   0.410   0.405   0.404   0.403   0.403   0.401
 2015 123    21   354    88      9     70     69     5    91    90    0.00   0.0   0.0   0.00   0.377   0.385   0.383   0.402   0.399   0.399   0.398   0.398   0.398
 2015 124    22   361    95      9     70     69     6   100    90    0.00   0.0   0.0   0.00   0.434   0.403   0.385   0.401   0.398   0.397   0.396   0.396   0.395
 2015 125    23   363    97     10     70     75     6   100    90    0.00   0.0   0.0   0.30   0.424   0.418   0.400   0.405   0.399   0.397   0.395   0.395   0.394
 2015 126    24   377   112     16     70     98     6   100    90    0.00   0.0   0.0   6.36   0.430   0.420   0.426   0.440   0.440   0.424   0.403   0.397   0.394
 2015 127    25   374   108     16     70     98     6   100    90    0.00   0.0   0.0   0.00   0.411   0.414   0.417   0.436   0.437   0.426   0.408   0.398   0.392
 2015 128    26   364    99     16     75     98     6   100    90    0.00   0.0   0.0   0.00   0.394   0.399   0.400   0.421   0.422   0.415   0.403   0.396   0.396
 2015 129    27   358    93     16     78     98     6   100    90    0.00   0.0   0.0   0.00   0.381   0.391   0.389   0.411   0.412   0.408   0.399   0.396   0.396
 2015 130    28   353    88     16     80     98     6   100    90    0.00   0.0   0.0   0.00   0.372   0.384   0.380   0.403   0.405   0.402   0.397   0.396   0.396
 2015 131    29   375   110     27     80    132     6   100    90    0.01   0.0   0.0  11.10   0.435   0.422   0.427   0.440   0.427   0.409   0.400   0.396   0.395
 2015 132    30   367   102     27     86    132     6   100    90    0.01   0.0   0.0   0.00   0.413   0.408   0.410   0.425   0.417   0.405   0.399   0.397   0.397
 2015 133    31   365    99     27     86    133     6   100    90    0.01   0.0   0.0   0.00   0.399   0.404   0.403   0.423   0.418   0.408   0.401   0.397   0.396
 2015 134    32   373   107     27     86    133     7   111    90    0.01   0.0   0.0   0.00   0.430   0.419   0.424   0.430   0.421   0.411   0.403   0.398   0.394
 2015 135    33   383   118     27     86    133     8   124    90    0.02   0.0   0.0   0.00   0.428   0.418   0.424   0.439   0.440   0.441   0.435   0.409   0.398
 2015 136    34   372   106     27     95    133     8   124    90    0.02   0.0   0.0   0.00   0.407   0.404   0.407   0.424   0.426   0.427   0.423   0.405   0.397
 2015 137    35   363    97     27    100    133     8   124    90    0.02   0.0   0.0   0.00   0.389   0.392   0.393   0.412   0.415   0.416   0.413   0.401   0.396
 2015 138    36   357    91     27    103    133     8   124    90    0.02   0.0   0.0   0.00   0.376   0.385   0.383   0.405   0.408   0.409   0.407   0.399   0.396
 2015 139    37   363    97     27    103    134     9   132    90    0.05   0.0   0.0   0.00   0.430   0.400   0.382   0.402   0.405   0.407   0.406   0.400   0.396
 2015 140    38   360    95     27    103    134     9   132    90    0.06   0.0   0.0   0.00   0.411   0.401   0.384   0.400   0.402   0.404   0.404   0.400   0.396
 2015 141    39   355    89     27    105    134     9   132    90    0.06   0.0   0.0   0.00   0.389   0.390   0.378   0.398   0.399   0.401   0.401   0.398   0.396
 2015 142    40   371   105     27    105    134    10   151    90    0.06   0.0   0.0   0.00   0.427   0.419   0.425   0.435   0.409   0.402   0.400   0.398   0.395
 2015 143    41   363    98     27    110    134    10   151    90    0.06   0.0   0.0   0.00   0.405   0.403   0.407   0.421   0.404   0.399   0.398   0.397   0.397
 2015 144    42   357    91     27    113    134    10   151    90    0.06   0.0   0.0   0.00   0.387   0.392   0.393   0.410   0.400   0.397   0.397   0.396   0.396
 2015 145    43   352    87     27    113    134    10   151    90    0.05   0.0   0.0   0.00   0.374   0.384   0.382   0.402   0.397   0.396   0.396   0.396   0.396
 2015 146    44   375   110     27    113    134    11   178    90    0.05   0.0   0.0   0.00   0.428   0.417   0.422   0.437   0.439   0.420   0.402   0.396   0.394
 2015 147    45   366   100     27    120    134    11   178    90    0.05   0.0   0.0   0.00   0.405   0.401   0.404   0.422   0.424   0.411   0.399   0.396   0.396
 2015 148    46   359    94     27    123    134    11   178    90    0.05   0.0   0.0   0.00   0.388   0.391   0.391   0.411   0.414   0.406   0.397   0.396   0.396
 2015 149    47   354    89     27    125    134    11   178    90    0.05   0.0   0.0   0.00   0.376   0.385   0.382   0.404   0.407   0.402   0.396   0.396   0.396
 2015 150    48   351    85     27    125    134    11   178    90    0.05   0.0   0.0   0.00   0.367   0.378   0.376   0.398   0.401   0.398   0.396   0.396   0.396
 2015 151    49   347    81     27    125    134    11   178    90    0.05   0.0   0.0   0.00   0.358   0.371   0.369   0.393   0.397   0.396   0.395   0.394   0.394
 2015 152    50   360    94     27    125    134    12   194    90    0.04   0.0   0.0   0.00   0.431   0.418   0.387   0.395   0.395   0.394   0.393   0.392   0.392
 2015 153    51   356    91     27    125    134    12   194    90    0.04   0.0   0.0   0.00   0.405   0.400   0.380   0.395   0.396   0.396   0.396   0.396   0.396
 2015 154    52   353    87     27    125    134    12   194    90    0.04   0.0   0.0   0.00   0.386   0.390   0.376   0.395   0.396   0.396   0.396   0.396   0.396
 2015 155    53   349    84     27    125    134    12   194    90    0.04   0.0   0.0   0.00   0.372   0.383   0.374   0.392   0.393   0.394   0.394   0.394   0.394
 2015 156    54   364    98     27    125    134    13   212    90    0.04   0.0   0.0   0.00   0.429   0.417   0.422   0.405   0.395   0.392   0.392   0.392   0.392
 2015 157    55   359    93     27    126    134    13   212    90    0.04   0.0   0.0   0.00   0.404   0.401   0.403   0.400   0.396   0.396   0.396   0.396   0.396
 2015 158    56   354    89     27    127    134    13   212    90    0.04   0.0   0.0   0.00   0.387   0.390   0.390   0.397   0.396   0.396   0.396   0.396   0.396
 2015 159    57   351    85     27    127    134    13   212    90    0.04   0.0   0.0   0.00   0.374   0.384   0.381   0.395   0.396   0.396   0.395   0.394   0.394
 2015 160    58   370   105     27    127    134    14   235    90    0.04   0.0   0.0   0.00   0.429   0.418   0.423   0.438   0.416   0.401   0.395   0.392   0.392
 2015 161    59   364    98     27    131    134    14   235    90    0.03   0.0   0.0   0.00   0.407   0.404   0.406   0.423   0.409   0.399   0.397   0.397   0.397
 2015 162    60   357    92     27    133    134    14   235    90    0.03   0.0   0.0   0.00   0.390   0.392   0.392   0.411   0.403   0.397   0.396   0.396   0.396
 2015 163    61   376   111     27    133    134    15   257    90    0.03   0.0   0.0   0.00   0.429   0.419   0.424   0.438   0.439   0.420   0.402   0.396   0.394
 2015 164    62   366   101     27    140    134    15   257    90    0.03   0.0   0.0   0.00   0.406   0.403   0.405   0.422   0.424   0.411   0.399   0.396   0.396
 2015 165    63   359    94     27    144    134    15   257    90    0.03   0.0   0.0   0.00   0.389   0.392   0.392   0.411   0.413   0.405   0.396   0.396   0.396
 2015 166    64   354    89     27    145    134    15   257    90    0.03   0.0   0.0   0.00   0.377   0.385   0.383   0.403   0.406   0.401   0.396   0.396   0.396
 2015 167    65   362    97     27    145    134    16   268    90    0.02   0.0   0.0   0.00   0.430   0.415   0.387   0.402   0.403   0.400   0.396   0.394   0.394
 2015 168    66   357    92     27    147    134    16   268    90    0.02   0.0   0.0   0.00   0.408   0.401   0.381   0.398   0.399   0.398   0.396   0.396   0.396
 2015 169    67   353    88     27    147    134    16   268    90    0.05   0.0   0.0   0.00   0.391   0.392   0.378   0.395   0.397   0.396   0.395   0.395   0.395
 2015 170    68   350    85     27    147    134    16   268    90    0.06   0.0   0.0   0.00   0.380   0.386   0.376   0.395   0.395   0.393   0.393   0.393   0.393
 2015 171    69   348    82     27    147    134    16   268    90    0.06   0.0   0.0   0.00   0.374   0.383   0.373   0.392   0.392   0.390   0.390   0.390   0.390
 2015 172    70   355    89     27    147    134    17   278    90    0.06   0.0   0.0   0.00   0.433   0.406   0.379   0.390   0.389   0.388   0.388   0.388   0.388
 2015 173    71   352    87     27    147    134    17   278    90    0.05   0.0   0.0   0.00   0.412   0.397   0.377   0.395   0.395   0.390   0.385   0.385   0.385
 2015 174    72   349    84     27    147    134    17   278    90    0.05   0.0   0.0   0.00   0.397   0.390   0.377   0.395   0.395   0.392   0.382   0.382   0.382
 2015 175    73   347    81     27    147    134    17   278    90    0.04   0.0   0.0   0.00   0.387   0.386   0.377   0.395   0.393   0.389   0.380   0.380   0.380

*DSSAT Cropping System Model Ver. 4.7.5.007 -  JAN 21, 2026 10:11:01
!                                                                                                 Soil water content (mm3/mm3) by soil depth (cm):
!                                                                                                0-10   10-20   20-30   30-40   40-50   50-60   60-70   70-80   80-90
@YEAR DOY   DAS  SWTD  SWXD   ROFC   DRNC   PREC  IR#C  IRRC  DTWT    MWTD  TDFD  TDFC   ROFD    SW1D    SW2D    SW3D    SW4D    SW5D    SW6D    SW7D    SW8D    SW9D
 2015 125     0   353    88      0      0      0     0     0     0    0.00   0.0   0.0   0.00   0.377   0.387   0.380   0.398   0.398   0.398   0.398   0.398   0.398
 2015 126     1   383   118     11      0     23     1    20    45    0.00   0.0   0.0  10.90   0.457   0.422   0.427   0.439   0.439   0.439   0.412   0.401   0.398
 2015 127     2   379   114     11      0     24     1    20    90    0.00   0.0   0.0   0.00   0.422   0.417   0.423   0.437   0.436   0.436   0.418   0.404   0.399
 2015 128     3   368   103     11      8     24     1    20    90    0.00   0.0   0.0   0.00   0.405   0.405   0.406   0.422   0.421   0.421   0.408   0.399   0.395
 2015 129     4   361    95     11     12     24     1    20    90    0.00   0.0   0.0   0.00   0.393   0.396   0.395   0.411   0.411   0.411   0.402   0.396   0.395
 2015 130     5   378   112     11     12     24     2    40    90    0.00   0.0   0.0   0.00   0.434   0.421   0.425   0.438   0.438   0.426   0.407   0.397   0.391
 2015 131     6   393   127     24     17     58     2    40    83    0.00   0.0   0.0  12.71   0.434   0.422   0.428   0.440   0.441   0.441   0.441   0.441   0.441
 2015 132     7   379   113     24     29     58     2    40    86    0.00   0.0   0.0   0.00   0.414   0.409   0.411   0.425   0.425   0.425   0.425   0.426   0.426
 2015 133     8   375   109     24     30     58     2    40    86    0.00   0.0   0.0   0.00   0.402   0.407   0.406   0.423   0.422   0.422   0.422   0.422   0.423
 2015 134     9   365   100     24     37     58     2    40    88    0.00   0.0   0.0   0.00   0.391   0.397   0.394   0.412   0.411   0.411   0.412   0.412   0.412
 2015 135    10   382   116     24     37     58     3    60    88    0.00   0.0   0.0   0.00   0.434   0.421   0.426   0.438   0.438   0.427   0.414   0.410   0.409
 2015 136    11   371   105     24     46     58     3    60    89    0.00   0.0   0.0   0.00   0.414   0.408   0.409   0.423   0.423   0.415   0.406   0.404   0.403
 2015 137    12   362    96     24     51     58     3    60    90    0.00   0.0   0.0   0.00   0.398   0.397   0.396   0.412   0.412   0.407   0.400   0.399   0.398
 2015 138    13   356    91     24     54     58     3    60    90    0.00   0.0   0.0   0.00   0.387   0.390   0.388   0.404   0.404   0.401   0.397   0.395   0.395
 2015 139    14   363    97     24     54     59     4    69    90    0.00   0.0   0.0   0.00   0.433   0.420   0.393   0.404   0.402   0.399   0.395   0.392   0.391
 2015 140    15   360    95     24     54     60     4    69    90    0.00   0.0   0.0   0.00   0.418   0.417   0.395   0.404   0.400   0.398   0.392   0.389   0.388
 2015 141    16   356    91     24     54     60     4    69    90    0.00   0.0   0.0   0.00   0.400   0.403   0.387   0.399   0.397   0.395   0.395   0.395   0.395
 2015 142    17   373   107     24     54     60     5    89    90    0.00   0.0   0.0   0.00   0.432   0.420   0.425   0.438   0.433   0.404   0.395   0.391   0.391
 2015 143    18   365   100     24     59     60     5    89    90    0.00   0.0   0.0   0.00   0.411   0.406   0.408   0.422   0.419   0.399   0.395   0.395   0.395
 2015 144    19   358    93     24     62     60     5    89    90    0.00   0.0   0.0   0.00   0.395   0.395   0.394   0.411   0.409   0.396   0.395   0.395   0.395
 2015 145    20   354    88     24     62     60     5    89    90    0.00   0.0   0.0   0.00   0.382   0.387   0.385   0.403   0.402   0.395   0.395   0.395   0.395
 2015 146    21   350    85     24     62     60     5    89    90    0.00   0.0   0.0   0.00   0.374   0.382   0.379   0.398   0.398   0.395   0.394   0.391   0.391
 2015 147    22   361    95     24     62     60     6   103    90    0.00   0.0   0.0   0.00   0.432   0.419   0.399   0.401   0.397   0.391   0.390   0.388   0.388
 2015 148    23   357    92     24     62     60     6   103    90    0.00   0.0   0.0   0.00   0.410   0.404   0.389   0.397   0.395   0.395   0.395   0.395   0.393
 2015 149    24   363    97     24     62     60     7   112    90    0.00   0.0   0.0   0.00   0.431   0.419   0.412   0.405   0.396   0.392   0.392   0.392   0.390
 2015 150    25   358    92     24     63     60     7   112    90    0.00   0.0   0.0   0.00   0.408   0.403   0.397   0.399   0.395   0.395   0.395   0.395   0.395
 2015 151    26   354    88     24     63     60     7   112    90    0.00   0.0   0.0   0.00   0.390   0.392   0.386   0.395   0.395   0.395   0.395   0.395   0.395
 2015 152    27   358    93     24     63     60     8   120    90    0.00   0.0   0.0   0.00   0.429   0.408   0.387   0.397   0.392   0.392   0.392   0.392   0.392
 2015 153    28   354    89     24     63     60     8   120    90    0.00   0.0   0.0   0.00   0.405   0.395   0.381   0.395   0.395   0.395   0.395   0.393   0.389
 2015 154    29   351    85     24     63     60     8   120    90    0.01   0.0   0.0   0.00   0.387   0.387   0.377   0.395   0.395   0.396   0.394   0.391   0.386
 2015 155    30   347    82     24     63     60     8   120    90    0.01   0.0   0.0   0.00   0.374   0.381   0.375   0.392   0.393   0.393   0.392   0.388   0.384
 2015 156    31   357    91     24     63     60     9   133    90    0.01   0.0   0.0   0.00   0.430   0.418   0.388   0.394   0.390   0.391   0.389   0.386   0.382
 2015 157    32   353    88     24     63     60     9   133    90    0.01   0.0   0.0   0.00   0.405   0.401   0.381   0.395   0.395   0.396   0.395   0.384   0.379
 2015 158    33   350    84     24     63     60     9   133    90    0.01   0.0   0.0   0.00   0.386   0.390   0.377   0.395   0.396   0.396   0.396   0.383   0.377
 2015 159    34   346    80     24     63     60     9   133    90    0.01   0.0   0.0   0.00   0.373   0.383   0.375   0.392   0.393   0.394   0.394   0.381   0.375
 2015 160    35   360    95     24     63     60    10   151    90    0.01   0.0   0.0   0.00   0.428   0.417   0.423   0.405   0.395   0.391   0.391   0.379   0.373
 2015 161    36   358    92     24     63     60    10   151    90    0.01   0.0   0.0   0.00   0.407   0.403   0.406   0.401   0.396   0.396   0.396   0.397   0.375
 2015 162    37   354    89     24     63     60    10   151    90    0.02   0.0   0.0   0.00   0.389   0.391   0.392   0.398   0.396   0.396   0.396   0.396   0.389
 2015 163    38   367   102     24     63     60    11   167    90    0.02   0.0   0.0   0.00   0.429   0.419   0.424   0.424   0.403   0.397   0.394   0.394   0.387
 2015 164    39   361    95     24     66     60    11   167    90    0.02   0.0   0.0   0.00   0.405   0.402   0.405   0.412   0.399   0.396   0.396   0.396   0.396
 2015 165    40   356    90     24     68     60    11   167    90    0.02   0.0   0.0   0.00   0.388   0.391   0.391   0.405   0.397   0.396   0.396   0.396   0.396
 2015 166    41   352    86     24     68     60    11   167    90    0.03   0.0   0.0   0.00   0.375   0.384   0.382   0.399   0.396   0.396   0.396   0.396   0.396
 2015 167    42   375   109     24     68     60    12   193    90    0.03   0.0   0.0   0.00   0.430   0.419   0.424   0.438   0.439   0.411   0.399   0.395   0.394
 2015 168    43   366   101     24     74     60    12   193    90    0.03   0.0   0.0   0.00   0.408   0.404   0.406   0.423   0.425   0.405   0.397   0.396   0.396
 2015 169    44   359    94     24     77     60    12   193    90    0.03   0.0   0.0   0.00   0.391   0.393   0.393   0.412   0.414   0.401   0.396   0.396   0.396
 2015 170    45   376   111     24     77     60    13   213    90    0.03   0.0   0.0   0.00   0.429   0.419   0.424   0.438   0.439   0.419   0.402   0.397   0.394
 2015 171    46   367   101     24     84     60    13   213    90    0.03   0.0   0.0   0.00   0.407   0.404   0.406   0.423   0.424   0.411   0.399   0.396   0.396
 2015 172    47   360    94     24     88     60    13   213    90    0.03   0.0   0.0   0.00   0.391   0.394   0.393   0.412   0.414   0.405   0.397   0.396   0.396
 2015 173    48   355    90     24     89     60    13   213    90    0.03   0.0   0.0   0.00   0.379   0.387   0.385   0.405   0.407   0.401   0.396   0.396   0.396
 2015 174    49   375   109     24     89     60    14   236    90    0.03   0.0   0.0   0.00   0.430   0.419   0.424   0.438   0.439   0.411   0.399   0.396   0.394
 2015 175    50   366   101     24     95     60    14   236    90    0.03   0.0   0.0   0.00   0.408   0.404   0.406   0.423   0.424   0.406   0.398   0.396   0.396
 2015 176    51   359    94     24     99     60    14   236    90    0.03   0.0   0.0   0.00   0.391   0.393   0.393   0.411   0.414   0.401   0.396   0.396   0.396
 2015 177    52   369   104     24     99     60    15   249    90    0.03   0.0   0.0   0.00   0.430   0.420   0.421   0.418   0.414   0.404   0.397   0.394   0.394
 2015 178    53   362    96     24    103     60    15   249    90    0.03   0.0   0.0   0.00   0.407   0.404   0.404   0.409   0.407   0.400   0.396   0.396   0.396
 2015 179    54   357    91     24    105     60    15   249    90    0.03   0.0   0.0   0.00   0.391   0.393   0.391   0.403   0.402   0.398   0.396   0.396   0.396
 2015 180    55   353    87     24    106     60    15   249    90    0.03   0.0   0.0   0.00   0.378   0.386   0.383   0.398   0.398   0.396   0.396   0.396   0.396
 2015 181    56   374   109     24    106     60    16   274    90    0.03   0.0   0.0   0.00   0.430   0.418   0.424   0.438   0.439   0.408   0.399   0.394   0.394
 2015 182    57   365   100     24    111     60    16   274    90    0.03   0.0   0.0   0.00   0.407   0.403   0.406   0.422   0.424   0.403   0.397   0.396   0.396
 2015 183    58   359    93     24    115     60    16   274    90    0.03   0.0   0.0   0.00   0.391   0.393   0.393   0.411   0.413   0.399   0.396   0.396   0.396
 2015 184    59   367   102     24    115     60    17   286    90    0.03   0.0   0.0   0.00   0.429   0.419   0.413   0.415   0.412   0.402   0.396   0.394   0.394
 2015 185    60   360    95     24    118     60    17   286    90    0.03   0.0   0.0   0.00   0.406   0.403   0.398   0.407   0.405   0.398   0.396   0.396   0.396
 2015 186    61   356    90     24    120     60    17   286    90    0.02   0.0   0.0   0.00   0.391   0.393   0.388   0.401   0.401   0.396   0.396   0.396   0.396
 2015 187    62   353    88     24    120     60    17   286    90    0.02   0.0   0.0   0.00   0.381   0.388   0.382   0.398   0.399   0.396   0.396   0.396   0.396
 2015 188    63   352    87     24    120     60    17   286    90    0.02   0.0   0.0   0.00   0.377   0.386   0.381   0.397   0.398   0.397   0.396   0.396   0.396
 2015 189    64   353    88     24    120     61    17   286    90    0.14   0.0   0.0   0.00   0.388   0.389   0.381   0.397   0.398   0.396   0.395   0.395   0.395
 2015 190    65   351    85     24    120     61    17   286    90    0.13   0.0   0.0   0.00   0.379   0.385   0.378   0.396   0.396   0.396   0.394   0.393   0.393
 2015 191    66   360    95     24    120     61    18   299    90    0.12   0.0   0.0   0.00   0.429   0.418   0.395   0.399   0.395   0.393   0.391   0.391   0.391
 2015 192    67   357    91     24    120     61    18   299    90    0.11   0.0   0.0   0.00   0.406   0.402   0.386   0.396   0.395   0.395   0.395   0.395   0.395
 2015 193    68   353    88     24    120     61    18   299    90    0.10   0.0   0.0   0.00   0.389   0.392   0.380   0.395   0.395   0.396   0.396   0.396   0.395
 2015 194    69   372   107     24    120     61    19   322    90    0.09   0.0   0.0   0.00   0.428   0.418   0.424   0.438   0.431   0.404   0.397   0.393   0.392
 2015 195    70   364    98     24    125     61    19   322    90    0.08   0.0   0.0   0.00   0.406   0.403   0.406   0.422   0.417   0.399   0.395   0.395   0.395
 2015 196    71   357    92     24    127     61    19   322    90    0.09   0.0   0.0   0.00   0.390   0.393   0.393   0.410   0.408   0.396   0.395   0.395   0.395
 2015 197    72   354    88     24    128     61    19   322    90    0.09   0.0   0.0   0.00   0.381   0.387   0.385   0.403   0.402   0.395   0.395   0.395   0.395
 2015 198    73   369   104     24    128     61    20   341    90    0.09   0.0   0.0   0.00   0.432   0.419   0.424   0.433   0.409   0.397   0.393   0.392   0.392
 2015 199    74   363    97     24    131     61    20   341    90    0.08   0.0   0.0   0.00   0.411   0.405   0.407   0.419   0.402   0.395   0.395   0.395   0.395
 2015 200    75   358    92     24    133     61    20   341    90    0.08   0.0   0.0   0.00   0.397   0.396   0.395   0.409   0.398   0.395   0.395   0.395   0.395
 2015 201    76   354    88     24    134     61    20   341    90    0.07   0.0   0.0   0.00   0.386   0.389   0.387   0.402   0.395   0.395   0.395   0.395   0.395
 2015 202    77   351    85     24    134     61    20   341    90    0.06   0.0   0.0   0.00   0.380   0.386   0.381   0.398   0.395   0.394   0.392   0.392   0.392

*DSSAT Cropping System Model Ver. 4.7.5.007 -  JAN 21, 2026 10:11:01
!                                                                                                 Soil water content (mm3/mm3) by soil depth (cm):
!                                                                                                0-10   10-20   20-30   30-40   40-50   50-60   60-70   70-80   80-90
@YEAR DOY   DAS  SWTD  SWXD   ROFC   DRNC   PREC  IR#C  IRRC  DTWT    MWTD  TDFD  TDFC   ROFD    SW1D    SW2D    SW3D    SW4D    SW5D    SW6D    SW7D    SW8D    SW9D
 2015 147     0   353    88      0      0      0     0     0     0    0.00   0.0   0.0   0.00   0.377   0.387   0.380   0.398   0.398   0.398   0.398   0.398   0.398
 2015 148     1   370   105      0      0      0     1    20    45    0.00   0.0   0.0   0.00   0.434   0.421   0.425   0.432   0.406   0.398   0.396   0.395   0.395
 2015 149     2   362    97      0      4      0     1    20    90    0.00   0.0   0.0   0.00   0.413   0.407   0.408   0.418   0.400   0.395   0.395   0.395   0.395
 2015 150     3   358    92      0      6      0     1    20    90    0.00   0.0   0.0   0.00   0.399   0.398   0.396   0.408   0.397   0.395   0.395   0.395   0.395
 2015 151     4   354    89      0      7      0     1    20    90    0.00   0.0   0.0   0.00   0.389   0.391   0.388   0.402   0.395   0.395   0.395   0.395   0.395
 2015 152     5   351    86      0      7      0     1    20    90    0.00   0.0   0.0   0.00   0.382   0.386   0.382   0.397   0.395   0.395   0.393   0.391   0.391
 2015 153     6   348    83      0      7      0     1    20    90    0.00   0.0   0.0   0.00   0.377   0.383   0.379   0.395   0.392   0.391   0.390   0.388   0.388
 2015 154     7   347    82      0      7      0     1    20    90    0.00   0.0   0.0   0.00   0.369   0.382   0.378   0.394   0.391   0.391   0.389   0.388   0.388
 2015 155     8   364    99      0      7      0     2    40    90    0.00   0.0   0.0   0.00   0.434   0.420   0.425   0.419   0.398   0.389   0.386   0.385   0.385
 2015 156     9   361    95      0      7      0     2    40    90    0.00   0.0   0.0   0.00   0.412   0.406   0.408   0.409   0.395   0.395   0.395   0.395   0.394
 2015 157    10   356    91      0      8      0     2    40    90    0.00   0.0   0.0   0.00   0.397   0.396   0.396   0.403   0.395   0.395   0.395   0.395   0.395
 2015 158    11   353    88      0      8      0     2    40    90    0.00   0.0   0.0   0.00   0.387   0.390   0.387   0.398   0.395   0.395   0.395   0.395   0.393
 2015 159    12   350    85      0      8      0     2    40    90    0.00   0.0   0.0   0.00   0.379   0.386   0.381   0.395   0.395   0.393   0.391   0.391   0.389
 2015 160    13   367   101      0      8      0     3    60    90    0.00   0.0   0.0   0.00   0.433   0.420   0.425   0.431   0.403   0.393   0.388   0.388   0.386
 2015 161    14   362    97      0      9      0     3    60    90    0.00   0.0   0.0   0.00   0.412   0.406   0.408   0.418   0.399   0.395   0.395   0.395   0.395
 2015 162    15   357    91      0     11      0     3    60    90    0.00   0.0   0.0   0.00   0.397   0.396   0.395   0.408   0.395   0.395   0.395   0.395   0.395
 2015 163    16   354    88      0     11      0     3    60    90    0.00   0.0   0.0   0.00   0.385   0.389   0.387   0.402   0.395   0.395   0.395   0.395   0.395
 2015 164    17   350    85      0     11      0     3    60    90    0.00   0.0   0.0   0.00   0.377   0.384   0.380   0.397   0.395   0.394   0.391   0.391   0.391
 2015 165    18   367   101      0     11      0     4    80    90    0.00   0.0   0.0   0.00   0.432   0.419   0.425   0.429   0.403   0.394   0.388   0.388   0.388
 2015 166    19   361    96      0     13      0     4    80    90    0.00   0.0   0.0   0.00   0.410   0.404   0.406   0.416   0.398   0.395   0.395   0.395   0.395
 2015 167    20   356    91      0     14      0     4    80    90    0.00   0.0   0.0   0.00   0.395   0.395   0.394   0.407   0.395   0.395   0.395   0.395   0.395
 2015 168    21   353    88      0     14      0     4    80    90    0.00   0.0   0.0   0.00   0.384   0.389   0.386   0.401   0.395   0.395   0.395   0.395   0.393
 2015 169    22   350    85      0     14      0     4    80    90    0.00   0.0   0.0   0.00   0.377   0.384   0.380   0.397   0.395   0.394   0.392   0.392   0.390
 2015 170    23   347    81      0     14      0     4    80    90    0.00   0.0   0.0   0.00   0.371   0.379   0.376   0.393   0.392   0.391   0.389   0.389   0.387
 2015 171    24   345    80      0     14      0     4    80    90    0.00   0.0   0.0   0.00   0.361   0.377   0.374   0.393   0.391   0.391   0.389   0.389   0.387
 2015 172    25   344    78      0     14      0     4    80    90    0.00   0.0   0.0   0.00   0.353   0.374   0.372   0.392   0.391   0.391   0.389   0.389   0.387
 2015 173    26   357    91      0     14      0     5    96    90    0.00   0.0   0.0   0.00   0.433   0.420   0.388   0.394   0.388   0.388   0.386   0.386   0.384
 2015 174    27   353    88      0     14      0     5    96    90    0.00   0.0   0.0   0.00   0.410   0.404   0.382   0.395   0.395   0.395   0.389   0.383   0.381
 2015 175    28   350    85      0     14      0     5    96    90    0.00   0.0   0.0   0.00   0.394   0.394   0.378   0.395   0.396   0.396   0.392   0.381   0.379
 2015 176    29   347    81      0     14      0     5    96    90    0.00   0.0   0.0   0.00   0.380   0.386   0.376   0.395   0.395   0.393   0.389   0.378   0.376
 2015 177    30   366   100      0     14      0     6   118    90    0.00   0.0   0.0   0.00   0.431   0.419   0.425   0.438   0.411   0.398   0.387   0.376   0.374
 2015 178    31   363    97      0     14      0     6   118    90    0.01   0.0   0.0   0.00   0.409   0.404   0.407   0.423   0.404   0.396   0.396   0.396   0.394
 2015 179    32   358    92      0     16      0     6   118    90    0.01   0.0   0.0   0.00   0.392   0.394   0.394   0.412   0.400   0.396   0.396   0.396   0.396
 2015 180    33   353    88      0     17      0     6   118    90    0.01   0.0   0.0   0.00   0.379   0.387   0.384   0.404   0.398   0.396   0.396   0.396   0.396
 2015 181    34   369   104      0     17      0     7   137    90    0.01   0.0   0.0   0.00   0.430   0.418   0.423   0.433   0.407   0.398   0.394   0.394   0.394
 2015 182    35   362    96      0     21      0     7   137    90    0.01   0.0   0.0   0.00   0.407   0.403   0.405   0.419   0.402   0.396   0.396   0.396   0.396
 2015 183    36   357    91      0     23      0     7   137    90    0.01   0.0   0.0   0.00   0.390   0.392   0.392   0.409   0.399   0.396   0.396   0.396   0.396
 2015 184    37   364    99      0     23      0     8   148    90    0.01   0.0   0.0   0.00   0.428   0.419   0.404   0.411   0.401   0.396   0.394   0.394   0.394
 2015 185    38   358    93      0     25      0     8   148    90    0.01   0.0   0.0   0.00   0.405   0.402   0.391   0.404   0.398   0.396   0.396   0.396   0.396
 2015 186    39   355    89      0     26      0     8   148    90    0.02   0.0   0.0   0.00   0.388   0.392   0.384   0.400   0.396   0.396   0.396   0.396   0.396
 2015 187    40   352    87      0     26      0     8   148    90    0.02   0.0   0.0   0.00   0.378   0.387   0.379   0.398   0.396   0.397   0.397   0.395   0.395
 2015 188    41   351    86      0     26      0     8   148    90    0.02   0.0   0.0   0.00   0.375   0.385   0.378   0.397   0.396   0.396   0.396   0.395   0.394
 2015 189    42   352    87      0     26      2     8   148    90    0.05   0.0   0.0   0.00   0.388   0.388   0.377   0.396   0.395   0.396   0.396   0.395   0.394
 2015 190    43   350    84      0     26      2     8   148    90    0.06   0.0   0.0   0.00   0.377   0.384   0.377   0.394   0.394   0.394   0.394   0.393   0.392
 2015 191    44   369   104      0     26      2     9   171    90    0.05   0.0   0.0   0.00   0.428   0.417   0.423   0.438   0.413   0.398   0.393   0.391   0.390
 2015 192    45   362    97      0     29      2     9   171    90    0.05   0.0   0.0   0.00   0.405   0.402   0.405   0.422   0.406   0.396   0.396   0.396   0.396
 2015 193    46   357    91      0     31      2     9   171    90    0.05   0.0   0.0   0.00   0.389   0.392   0.392   0.411   0.401   0.396   0.396   0.396   0.396
 2015 194    47   375   109      0     31      2    10   193    90    0.05   0.0   0.0   0.00   0.427   0.418   0.423   0.437   0.439   0.416   0.400   0.396   0.394
 2015 195    48   365   100      0     37      2    10   193    90    0.05   0.0   0.0   0.00   0.404   0.402   0.404   0.421   0.423   0.408   0.398   0.396   0.396
 2015 196    49   358    93      0     41      2    10   193    90    0.05   0.0   0.0   0.00   0.387   0.391   0.391   0.410   0.413   0.403   0.396   0.396   0.396
 2015 197    50   354    88      0     42      2    10   193    90    0.05   0.0   0.0   0.00   0.376   0.385   0.382   0.403   0.406   0.399   0.396   0.396   0.396
 2015 198    51   368   103      0     42      2    11   211    90    0.05   0.0   0.0   0.00   0.429   0.418   0.423   0.420   0.408   0.400   0.396   0.394   0.394
 2015 199    52   361    96      0     45      2    11   211    90    0.04   0.0   0.0   0.00   0.406   0.402   0.405   0.410   0.403   0.398   0.396   0.396   0.396
 2015 200    53   356    90      0     47      2    11   211    90    0.04   0.0   0.0   0.00   0.389   0.392   0.392   0.403   0.399   0.396   0.396   0.396   0.396
 2015 201    54   352    86      0     47      2    11   211    90    0.04   0.0   0.0   0.00   0.375   0.384   0.382   0.398   0.396   0.395   0.395   0.395   0.395
 2015 202    55   348    83      0     47      2    11   211    90    0.04   0.0   0.0   0.00   0.368   0.379   0.376   0.394   0.394   0.393   0.393   0.393   0.393
 2015 203    56   346    80      0     47      2    11   211    90    0.04   0.0   0.0   0.00   0.354   0.373   0.372   0.393   0.393   0.393   0.393   0.393   0.393
 2015 204    57   365   100      0     47      2    12   234    90    0.04   0.0   0.0   0.00   0.432   0.418   0.423   0.417   0.399   0.392   0.391   0.391   0.391
 2015 205    58   359    94      0     49      2    12   234    90    0.04   0.0   0.0   0.00   0.406   0.401   0.404   0.407   0.396   0.395   0.395   0.395   0.395
 2015 206    59   355    89      0     50      2    12   234    90    0.04   0.0   0.0   0.00   0.389   0.391   0.391   0.401   0.395   0.396   0.396   0.396   0.396
 2015 207    60   351    86      0     50      2    12   234    90    0.04   0.0   0.0   0.00   0.376   0.384   0.382   0.397   0.395   0.395   0.395   0.393   0.393
 2015 208    61   347    81      0     50      2    12   234    90    0.04   0.0   0.0   0.00   0.367   0.377   0.375   0.393   0.392   0.392   0.392   0.390   0.390
 2015 209    62   369   103      0     50      2    13   258    90    0.04   0.0   0.0   0.00   0.433   0.420   0.425   0.439   0.406   0.395   0.391   0.389   0.388
 2015 210    63   362    96      0     53      2    13   258    90    0.04   0.0   0.0   0.00   0.407   0.403   0.405   0.422   0.400   0.395   0.395   0.395   0.395
 2015 211    64   356    90      0     54      2    13   258    90    0.04   0.0   0.0   0.00   0.389   0.391   0.391   0.410   0.397   0.395   0.395   0.395   0.395
 2015 212    65   351    86      0     54      2    13   258    90    0.03   0.0   0.0   0.00   0.376   0.384   0.381   0.402   0.395   0.395   0.395   0.395   0.393
 2015 213    66   367   102      0     54      2    14   278    90    0.03   0.0   0.0   0.00   0.429   0.418   0.423   0.431   0.404   0.396   0.392   0.392   0.390
 2015 214    67   360    95      0     57      2    14   278    90    0.03   0.0   0.0   0.00   0.405   0.401   0.404   0.416   0.398   0.395   0.395   0.395   0.395
 2015 215    68   355    90      0     58      2    14   278    90    0.03   0.0   0.0   0.00   0.389   0.391   0.391   0.407   0.395   0.395   0.395   0.395   0.395
 2015 216    69   371   105      0     58      2    15   298    90    0.03   0.0   0.0   0.00   0.428   0.418   0.422   0.437   0.424   0.402   0.395   0.392   0.392
 2015 217    70   362    97      0     62      2    15   298    90    0.03   0.0   0.0   0.00   0.404   0.401   0.403   0.420   0.412   0.397   0.395   0.395   0.395
 2015 218    71   356    91      0     64      2    15   298    90    0.04   0.0   0.0   0.00   0.388   0.391   0.390   0.409   0.404   0.395   0.395   0.395   0.395
 2015 219    72   352    87      0     64      2    15   298    90    0.05   0.0   0.0   0.00   0.378   0.385   0.382   0.401   0.399   0.395   0.395   0.395   0.394
 2015 220    73   369   103      0     64      2    16   318    90    0.06   0.0   0.0   0.00   0.432   0.419   0.424   0.434   0.407   0.397   0.391   0.391   0.391
 2015 221    74   362    96      0     67      2    16   318    90    0.05   0.0   0.0   0.00   0.410   0.404   0.406   0.419   0.401   0.395   0.395   0.395   0.395
 2015 222    75   357    91      0     69      2    16   318    90    0.05   0.0   0.0   0.00   0.395   0.395   0.394   0.409   0.397   0.395   0.395   0.395   0.395
 2015 223    76   374   108      0     69      2    17   338    90    0.05   0.0   0.0   0.00   0.434   0.421   0.426   0.438   0.436   0.405   0.396   0.392   0.392
 2015 224    77   365   100      0     74      2    17   338    90    0.04   0.0   0.0   0.00   0.412   0.407   0.408   0.422   0.421   0.400   0.395   0.395   0.395
