*SOIL-PLANT-ATMOSPHERE MODULE OUTPUT FILE

*DSSAT Cropping System Model Ver. 4.7.5.007 -  MAR 01, 2026 21:01:02
!                                                                                                                                                                                        Soil evaporation (mm/d) by soil depth (cm):
!                                                                                                                                                                                       0-10   10-20   20-30   30-40   40-50   50-60   60-70   70-80   80-90
@YEAR DOY   DAS   SRAA  TMAXA  TMINA    REFA    EOAA    EOPA    EOSA    KCAA    KCBA    KEAA    ETAA    EPAA    ESAA    EFAA    EMAA    EOAC    ETAC    EPAC    ESAC    EFAC    EMAC    ES1D    ES2D    ES3D    ES4D    ES5D    ES6D    ES7D    ES8D    ES9D   TRWUD
 2015 103     1  16.80  29.50  21.00 -99.000   4.626   0.000   4.626 -99.000 -99.000 -99.000   3.146   0.000   3.146   0.000   0.000    4.63    3.15    0.00    3.15    0.00    0.00   0.355   0.350   0.351   0.363   0.362   0.346   0.341   0.340   0.339   0.000
 2015 104     2  12.00  27.60  21.40 -99.000   3.278   0.000   3.278 -99.000 -99.000 -99.000   3.278   0.000   3.278   0.000   0.000    7.90    6.42    0.00    6.42    0.00    0.00   1.169   0.517   0.369   0.298   0.250   0.207   0.174   0.154   0.140   0.000
 2015 105     3  12.80  29.20  21.00 -99.000   3.543   0.000   3.543 -99.000 -99.000 -99.000   3.281   0.000   3.281   0.000   0.000   11.45    9.71    0.00    9.71    0.00    0.00   0.362   0.364   0.369   0.384   0.384   0.382   0.356   0.343   0.337   0.000
 2015 106     4  14.70  27.80  19.70 -99.000   3.958   0.000   3.958 -99.000 -99.000 -99.000   3.958   0.000   3.958   0.000   0.000   15.41   13.66    0.00   13.66    0.00    0.00   1.372   0.622   0.442   0.361   0.303   0.262   0.227   0.197   0.172   0.000
 2015 107     5  14.30  29.40  20.10 -99.000   3.940   0.000   3.940 -99.000 -99.000 -99.000   3.940   0.000   3.940   0.000   0.000   19.34   17.60    0.00   17.60    0.00    0.00   1.360   0.616   0.436   0.358   0.300   0.261   0.232   0.203   0.174   0.000
 2015 108     6  16.80  29.90  19.20 -99.000   4.598   0.050   4.547 -99.000 -99.000 -99.000   4.598   0.050   4.547   0.000   0.000   23.94   22.20    0.05   22.15    0.00    0.00   1.562   0.708   0.503   0.411   0.345   0.300   0.267   0.238   0.212   0.005
 2015 109     7  15.50  29.90  19.40 -99.000   4.252   0.108   4.191 -99.000 -99.000 -99.000   3.395   0.108   3.287   0.000   0.000   28.20   25.60    0.16   25.44    0.00    0.00   0.356   0.352   0.357   0.369   0.370   0.370   0.370   0.371   0.371   0.011
 2015 110     8  11.20  29.50  18.90 -99.000   3.035   0.056   2.978 -99.000 -99.000 -99.000   3.035   0.056   2.978   0.000   0.000   31.23   28.63    0.22   28.42    0.00    0.00   0.335   0.325   0.326   0.333   0.332   0.332   0.332   0.332   0.332   0.006
 2015 111     9  15.20  30.10  20.60 -99.000   4.212   0.104   4.107 -99.000 -99.000 -99.000   4.211   0.104   4.107   0.000   0.000   35.44   32.84    0.32   32.52    0.00    0.00   1.456   0.644   0.454   0.364   0.304   0.261   0.229   0.206   0.189   0.010
 2015 112    10  15.80  28.40  19.40 -99.000   4.244   0.228   4.112 -99.000 -99.000 -99.000   3.466   0.228   3.238   0.000   0.000   39.69   36.31    0.55   35.76    0.00    0.00   0.356   0.353   0.358   0.370   0.370   0.364   0.357   0.355   0.355   0.023
 2015 113    11  13.30  29.80  19.90 -99.000   3.625   0.226   3.495 -99.000 -99.000 -99.000   3.531   0.226   3.306   0.000   0.000   43.31   39.84    0.77   39.07    0.00    0.00   0.370   0.359   0.365   0.376   0.377   0.374   0.370   0.362   0.354   0.023
 2015 114    12  13.80  29.70  19.00 -99.000   3.740   0.293   3.569 -99.000 -99.000 -99.000   3.653   0.293   3.361   0.000   0.000   47.05   43.49    1.07   42.43    0.00    0.00   0.368   0.366   0.369   0.383   0.383   0.383   0.383   0.370   0.356   0.029
 2015 115    13  16.80  30.20  20.20 -99.000   4.591   0.443   4.330 -99.000 -99.000 -99.000   3.674   0.443   3.231   0.000   0.000   51.64   47.17    1.51   45.66    0.00    0.00   0.350   0.352   0.352   0.367   0.367   0.367   0.367   0.360   0.350   0.044
 2015 116    14  14.40  29.10  18.70 -99.000   3.822   0.448   3.555 -99.000 -99.000 -99.000   3.670   0.448   3.222   0.000   0.000   55.46   50.84    1.96   48.88    0.00    0.00   0.365   0.352   0.348   0.363   0.363   0.363   0.363   0.357   0.348   0.045
 2015 117    15  21.10  28.40  17.50 -99.000   5.511   0.777   5.043 -99.000 -99.000 -99.000   3.980   0.777   3.204   0.000   0.000   60.97   54.82    2.73   52.08    0.00    0.00   0.365   0.355   0.345   0.360   0.359   0.359   0.359   0.355   0.347   0.078
 2015 118    16  21.10  28.30  17.00 -99.000   5.459   0.497   4.960 -99.000 -99.000 -99.000   5.455   0.497   4.958   0.000   0.000   66.43   60.27    3.23   57.04    0.00    0.00   1.769   0.767   0.535   0.437   0.366   0.318   0.283   0.255   0.228   0.050
 2015 119    17  21.60  28.00  14.80 -99.000   5.479   0.949   4.895 -99.000 -99.000 -99.000   4.238   0.949   3.289   0.000   0.000   71.91   64.51    4.18   60.33    0.00    0.00   0.370   0.351   0.357   0.369   0.370   0.370   0.370   0.371   0.362   0.095
 2015 120    18  22.00   8.60   2.40 -99.000   3.763   0.443   3.316 -99.000 -99.000 -99.000   3.757   0.443   3.314   0.000   0.000   75.68   68.27    4.62   63.64    0.00    0.00   1.164   0.513   0.366   0.298   0.246   0.213   0.189   0.171   0.154   0.044
 2015 121    19  16.80  29.10  13.00 -99.000   4.233   0.809   3.730 -99.000 -99.000 -99.000   4.031   0.809   3.222   0.000   0.000   79.91   72.30    5.43   66.87    0.00    0.00   0.357   0.353   0.358   0.369   0.360   0.357   0.357   0.357   0.353   0.081
 2015 122    20  18.00  28.40  14.50 -99.000   4.517   0.990   3.891 -99.000 -99.000 -99.000   4.117   0.990   3.127   0.000   0.000   84.43   76.42    6.42   69.99    0.00    0.00   0.341   0.341   0.343   0.357   0.351   0.349   0.349   0.349   0.346   0.099
 2015 123    21  15.90  28.00  14.70 -99.000   3.955   0.890   3.346 -99.000 -99.000 -99.000   3.902   0.843   3.060   0.000   0.000   88.38   80.32    7.26   73.05    0.00    0.00   0.329   0.333   0.333   0.348   0.345   0.344   0.343   0.343   0.341   0.084
 2015 124    22   9.80  26.40  14.50 -99.000   2.380   0.389   1.989 -99.000 -99.000 -99.000   2.377   0.389   1.987   0.000   0.000   90.76   82.70    7.65   75.04    0.00    0.00   0.230   0.220   0.214   0.223   0.221   0.221   0.220   0.220   0.219   0.039
 2015 125    23  13.80  28.00  15.40 -99.000   3.441   0.670   2.768 -99.000 -99.000 -99.000   3.436   0.670   2.765   0.000   0.000   94.20   86.13    8.32   77.81    0.00    0.00   1.026   0.442   0.293   0.236   0.195   0.168   0.149   0.135   0.123   0.067
 2015 126    24   8.70  26.60  16.10 -99.000   2.125   0.502   1.621 -99.000 -99.000 -99.000   2.121   0.502   1.619   0.000   0.000   96.33   88.25    8.83   79.43    0.00    0.00   0.582   0.260   0.179   0.144   0.119   0.101   0.086   0.077   0.070   0.050
 2015 127    25  16.20  27.70  15.80 -99.000   3.971   1.087   2.880 -99.000 -99.000 -99.000   3.963   1.087   2.876   0.000   0.000  100.30   92.21    9.91   82.30    0.00    0.00   0.323   0.322   0.326   0.339   0.339   0.327   0.307   0.299   0.294   0.109
 2015 128    26  14.50  28.40  17.20 -99.000   3.588   1.125   2.460 -99.000 -99.000 -99.000   3.581   1.125   2.456   0.000   0.000  103.89   95.80   11.04   84.76    0.00    0.00   0.269   0.271   0.273   0.285   0.286   0.280   0.269   0.263   0.260   0.113
 2015 129    27  13.50  26.50  16.30 -99.000   3.215   1.162   2.050 -99.000 -99.000 -99.000   3.207   1.162   2.045   0.000   0.000  107.10   99.00   12.20   86.80    0.00    0.00   0.221   0.224   0.224   0.235   0.236   0.233   0.226   0.223   0.223   0.116
 2015 130    28  16.40  28.20  15.40 -99.000   3.922   1.583   2.335 -99.000 -99.000 -99.000   3.631   1.302   2.329   0.000   0.000  111.02  102.63   13.50   89.13    0.00    0.00   0.248   0.254   0.253   0.266   0.267   0.265   0.260   0.258   0.258   0.130
 2015 131    29   4.60  21.40  15.80 -99.000   1.014   0.418   0.595 -99.000 -99.000 -99.000   1.011   0.418   0.593   0.000   0.000  112.04  103.64   13.92   89.72    0.00    0.00   0.067   0.066   0.066   0.069   0.068   0.066   0.064   0.064   0.064   0.042
 2015 132    30   9.00  22.30  17.20 -99.000   2.031   0.878   1.150 -99.000 -99.000 -99.000   2.025   0.878   1.147   0.000   0.000  114.07  105.67   14.80   90.87    0.00    0.00   0.132   0.129   0.130   0.134   0.131   0.125   0.123   0.122   0.122   0.088
 2015 133    31  10.90  24.80  15.60 -99.000   2.482   1.145   1.335 -99.000 -99.000 -99.000   2.474   1.145   1.329   0.000   0.000  116.55  108.14   15.94   92.20    0.00    0.00   0.148   0.149   0.149   0.155   0.152   0.147   0.144   0.143   0.142   0.114
 2015 134    32  12.90  26.90  14.20 -99.000   2.957   1.446   1.510 -99.000 -99.000 -99.000   2.947   1.446   1.500   0.000   0.000  119.51  111.09   17.39   93.70    0.00    0.00   0.172   0.169   0.171   0.175   0.171   0.165   0.161   0.159   0.158   0.145
 2015 135    33  12.10  26.20  13.40 -99.000   2.733   1.361   1.374 -99.000 -99.000 -99.000   2.723   1.361   1.362   0.000   0.000  122.24  113.81   18.75   95.06    0.00    0.00   0.484   0.214   0.153   0.123   0.102   0.087   0.076   0.065   0.058   0.136
 2015 136    34  10.00  24.90  14.10 -99.000   2.222   1.166   1.062 -99.000 -99.000 -99.000   2.214   1.166   1.048   0.000   0.000  124.46  116.03   19.92   96.11    0.00    0.00   0.117   0.114   0.116   0.120   0.120   0.120   0.119   0.112   0.110   0.117
 2015 137    35  15.70  27.00  15.10 -99.000   3.587   1.956   1.640 -99.000 -99.000 -99.000   3.574   1.956   1.618   0.000   0.000  128.05  119.60   21.87   97.73    0.00    0.00   0.177   0.176   0.177   0.184   0.185   0.185   0.184   0.176   0.174   0.196
 2015 138    36  14.30  27.50  16.10 -99.000   3.296   1.861   1.446 -99.000 -99.000 -99.000   3.284   1.861   1.423   0.000   0.000  131.34  122.88   23.73   99.15    0.00    0.00   0.152   0.154   0.154   0.162   0.162   0.163   0.162   0.158   0.156   0.186
 2015 139    37  12.80  27.00  19.80 -99.000   3.008   1.739   1.283 -99.000 -99.000 -99.000   2.997   1.739   1.258   0.000   0.001  134.35  125.88   25.47  100.41    0.00    0.00   0.144   0.138   0.134   0.141   0.142   0.142   0.142   0.139   0.137   0.174
 2015 140    38  14.00  26.40  16.80 -99.000   3.199   1.853   1.366 -99.000 -99.000 -99.000   3.185   1.853   1.332   0.000   0.001  137.55  129.07   27.32  101.74    0.00    0.00   0.158   0.149   0.141   0.147   0.148   0.149   0.149   0.147   0.145   0.185
 2015 141    39  15.50  26.70  15.70 -99.000   3.507   2.097   1.441 -99.000 -99.000 -99.000   3.491   2.097   1.395   0.000   0.002  141.06  132.56   29.42  103.14    0.00    0.01   0.158   0.155   0.148   0.155   0.156   0.157   0.157   0.156   0.154   0.210
 2015 142    40  13.50  26.60  16.10 -99.000   3.053   1.855   1.225 -99.000 -99.000 -99.000   3.038   1.855   1.184   0.000   0.003  144.11  135.60   31.28  104.32    0.00    0.01   0.136   0.133   0.132   0.136   0.131   0.130   0.130   0.129   0.127   0.185
 2015 143    41  12.20  26.80  18.70 -99.000   2.824   1.725   1.126 -99.000 -99.000 -99.000   2.811   1.725   1.086   0.000   0.003  146.94  138.41   33.00  105.41    0.00    0.01   0.124   0.122   0.124   0.126   0.120   0.118   0.118   0.117   0.116   0.172
 2015 144    42  14.70  28.20  18.10 -99.000   3.433   2.124   1.346 -99.000 -99.000 -99.000   3.417   2.124   1.293   0.000   0.003  150.37  141.82   35.13  106.70    0.00    0.01   0.143   0.143   0.144   0.149   0.144   0.143   0.143   0.142   0.142   0.212
 2015 145    43  16.20  28.40  19.50 -99.000   3.827   2.384   1.484 -99.000 -99.000 -99.000   3.810   2.384   1.426   0.000   0.003  154.20  145.63   37.51  108.12    0.00    0.02   0.154   0.156   0.156   0.163   0.160   0.159   0.159   0.159   0.159   0.238
 2015 146    44  16.40  28.20  18.90 -99.000   3.845   2.398   1.490 -99.000 -99.000 -99.000   3.828   2.398   1.430   0.000   0.003  158.04  149.46   39.91  109.55    0.00    0.02   0.160   0.158   0.159   0.166   0.165   0.159   0.155   0.154   0.153   0.240
 2015 147    45  14.10  28.30  18.90 -99.000   3.320   2.046   1.316 -99.000 -99.000 -99.000   3.304   2.046   1.259   0.000   0.003  161.36  152.77   41.95  110.81    0.00    0.02   0.143   0.139   0.141   0.146   0.147   0.141   0.135   0.134   0.134   0.205
 2015 148    46  14.20  27.70  12.20 -99.000   3.151   1.928   1.267 -99.000 -99.000 -99.000   3.135   1.928   1.207   0.000   0.003  164.51  155.90   43.88  112.02    0.00    0.03   0.133   0.132   0.133   0.139   0.140   0.136   0.132   0.132   0.132   0.193
 2015 149    47  14.70  27.20  10.40 -99.000   3.195   1.943   1.299 -99.000 -99.000 -99.000   3.178   1.943   1.236   0.000   0.003  167.71  159.08   45.82  113.26    0.00    0.03   0.133   0.134   0.134   0.141   0.142   0.140   0.137   0.137   0.137   0.194
 2015 150    48  16.40  29.00  11.00 -99.000   3.660   2.212   1.504 -99.000 -99.000 -99.000   3.641   2.212   1.429   0.000   0.003  171.37  162.72   48.03  114.69    0.00    0.03   0.151   0.155   0.154   0.163   0.164   0.162   0.160   0.160   0.160   0.221
 2015 151    49  16.50  30.70  12.00 -99.000   3.785   2.273   1.574 -99.000 -99.000 -99.000   3.131   1.637   1.494   0.000   0.003  175.15  165.85   49.67  116.18    0.00    0.04   0.154   0.160   0.159   0.170   0.172   0.171   0.170   0.169   0.169   0.164
 2015 152    50  14.80  29.60  12.40 -99.000   3.363   2.003   1.420 -99.000 -99.000 -99.000   2.564   1.221   1.344   0.000   0.003  178.51  168.41   50.89  117.52    0.00    0.04   0.152   0.151   0.144   0.150   0.150   0.150   0.149   0.149   0.149   0.122
 2015 153    51  15.30  28.70  16.60 -99.000   3.567   2.105   1.532 -99.000 -99.000 -99.000   3.550   2.105   1.445   0.000   0.004  182.08  171.97   53.00  118.97    0.00    0.04   0.171   0.167   0.155   0.159   0.159   0.159   0.159   0.158   0.158   0.211
 2015 154    52  14.20  27.70  16.20 -99.000   3.261   1.904   1.426 -99.000 -99.000 -99.000   3.245   1.904   1.342   0.000   0.004  185.34  175.21   54.90  120.31    0.00    0.05   0.151   0.150   0.143   0.149   0.149   0.150   0.150   0.150   0.150   0.190
 2015 155    53  16.10  27.10  15.40 -99.000   3.647   2.109   1.622 -99.000 -99.000 -99.000   3.630   2.109   1.521   0.000   0.004  188.99  178.84   57.01  121.83    0.00    0.05   0.166   0.168   0.163   0.170   0.171   0.171   0.171   0.171   0.171   0.211
 2015 156    54  15.40  27.10  15.40 -99.000   3.494   1.958   1.627 -99.000 -99.000 -99.000   3.184   1.665   1.520   0.000   0.004  192.48  182.03   58.67  123.35    0.00    0.06   0.174   0.172   0.171   0.169   0.167   0.166   0.166   0.166   0.166   0.166
 2015 157    55  15.60  27.80  15.60 -99.000   3.593   1.939   1.768 -99.000 -99.000 -99.000   3.576   1.939   1.637   0.000   0.005  196.08  185.60   60.61  124.99    0.00    0.06   0.191   0.186   0.187   0.182   0.179   0.178   0.178   0.178   0.178   0.194
 2015 158    56  15.20  27.70  15.90 -99.000   3.496   1.880   1.746 -99.000 -99.000 -99.000   3.479   1.880   1.599   0.000   0.006  199.57  189.08   62.49  126.59    0.00    0.07   0.179   0.178   0.178   0.179   0.177   0.177   0.177   0.177   0.177   0.188
 2015 159    57  15.10  28.00  14.50 -99.000   3.446   1.834   1.746 -99.000 -99.000 -99.000   3.428   1.834   1.594   0.000   0.006  203.02  192.51   64.33  128.18    0.00    0.07   0.173   0.175   0.174   0.179   0.179   0.179   0.179   0.178   0.178   0.183
 2015 160    58  16.00  28.30  14.20 -99.000   3.655   1.925   1.877 -99.000 -99.000 -99.000   3.483   1.771   1.711   0.000   0.006  206.67  195.99   66.10  129.89    0.00    0.08   0.194   0.191   0.193   0.199   0.192   0.187   0.186   0.185   0.185   0.177
 2015 161    59  10.80  27.40  14.70 -99.000   2.463   1.269   1.298 -99.000 -99.000 -99.000   2.449   1.269   1.180   0.000   0.006  209.14  198.44   67.37  131.07    0.00    0.08   0.136   0.132   0.134   0.139   0.132   0.128   0.127   0.126   0.126   0.127
 2015 162    60  15.20  28.30  15.60 -99.000   3.523   1.800   1.881 -99.000 -99.000 -99.000   3.506   1.800   1.706   0.000   0.005  212.66  201.95   69.17  132.78    0.00    0.09   0.190   0.189   0.190   0.198   0.191   0.188   0.187   0.187   0.187   0.180
 2015 163    61  13.20  27.70  16.80 -99.000   3.065   1.549   1.658 -99.000 -99.000 -99.000   3.050   1.549   1.501   0.000   0.005  215.72  205.00   70.72  134.28    0.00    0.09   0.171   0.167   0.169   0.175   0.173   0.166   0.161   0.160   0.159   0.155
 2015 164    62  15.00  28.70  14.70 -99.000   3.478   1.737   1.907 -99.000 -99.000 -99.000   3.462   1.737   1.725   0.000   0.005  219.20  208.46   72.46  136.00    0.00    0.10   0.196   0.192   0.193   0.200   0.201   0.193   0.185   0.183   0.182   0.174
 2015 165    63  15.20  28.80  14.20 -99.000   3.547   1.500   2.251 -99.000 -99.000 -99.000   3.534   1.500   2.034   0.000   0.004  222.75  211.99   73.95  138.04    0.00    0.10   0.224   0.223   0.224   0.234   0.235   0.229   0.223   0.221   0.221   0.150
 2015 166    64  14.90  29.00  15.60 -99.000   3.526   1.244   2.570 -99.000 -99.000 -99.000   3.514   1.244   2.269   0.000   0.005  226.27  215.51   75.20  140.31    0.00    0.11   0.245   0.248   0.247   0.259   0.261   0.256   0.251   0.251   0.251   0.124
 2015 167    65  13.50  28.80  14.90 -99.000   3.170   0.957   2.531 -99.000 -99.000 -99.000   3.150   0.957   2.193   0.000   0.009  229.44  218.66   76.16  142.50    0.00    0.12   0.253   0.247   0.236   0.246   0.248   0.244   0.240   0.239   0.239   0.096
 2015 168    66  11.60  28.60  16.10 -99.000   2.760   0.647   2.346 -99.000 -99.000 -99.000   2.651   0.647   2.004   0.000   0.011  232.20  221.31   76.80  144.50    0.00    0.13   0.236   0.229   0.214   0.223   0.223   0.222   0.219   0.219   0.219   0.065
 2015 169    67  13.40  28.70  15.70 -99.000   3.175   0.573   2.821 -99.000 -99.000 -99.000   2.961   0.573   2.389   0.000   0.012  235.38  224.27   77.38  146.89    0.00    0.14   0.272   0.268   0.256   0.266   0.267   0.266   0.265   0.265   0.265   0.057
 2015 170    68  13.60  27.20  15.40 -99.000   3.154   0.434   2.893 -99.000 -99.000 -99.000   2.866   0.434   2.432   0.000   0.012  238.53  227.14   77.81  149.33    0.00    0.15   0.270   0.270   0.261   0.273   0.273   0.272   0.271   0.271   0.271   0.043
 2015 171    69  12.90  25.90  12.50 -99.000   2.875   0.300   2.697 -99.000 -99.000 -99.000   2.557   0.300   2.257   0.000   0.011  241.41  229.69   78.11  151.58    0.00    0.17   0.247   0.250   0.243   0.254   0.254   0.253   0.252   0.252   0.252   0.030
 2015 172    70  14.00  24.30  14.80 -99.000   3.115   0.246   2.971 -99.000 -99.000 -99.000   2.725   0.246   2.478   0.000   0.010  244.52  232.42   78.36  154.06    0.00    0.18   0.292   0.282   0.267   0.275   0.274   0.273   0.272   0.272   0.272   0.025

*DSSAT Cropping System Model Ver. 4.7.5.007 -  MAR 01, 2026 21:01:02
!                                                                                                                                                                                        Soil evaporation (mm/d) by soil depth (cm):
!                                                                                                                                                                                       0-10   10-20   20-30   30-40   40-50   50-60   60-70   70-80   80-90
@YEAR DOY   DAS   SRAA  TMAXA  TMINA    REFA    EOAA    EOPA    EOSA    KCAA    KCBA    KEAA    ETAA    EPAA    ESAA    EFAA    EMAA    EOAC    ETAC    EPAC    ESAC    EFAC    EMAC    ES1D    ES2D    ES3D    ES4D    ES5D    ES6D    ES7D    ES8D    ES9D   TRWUD
 2015 126     1   8.70  26.60  16.10 -99.000   2.235   0.000   2.235 -99.000 -99.000 -99.000   2.235   0.000   2.235   0.000   0.000    2.23    2.23    0.00    2.23    0.00    0.00   0.257   0.245   0.246   0.255   0.255   0.255   0.244   0.240   0.239   0.000
 2015 127     2  16.20  27.70  15.80 -99.000   4.264   0.000   4.264 -99.000 -99.000 -99.000   4.264   0.000   4.264   0.000   0.000    6.50    6.50    0.00    6.50    0.00    0.00   1.515   0.668   0.475   0.385   0.322   0.280   0.233   0.203   0.183   0.000
 2015 128     3  14.50  28.40  17.20 -99.000   3.865   0.000   3.865 -99.000 -99.000 -99.000   3.210   0.000   3.210   0.000   0.000   10.36    9.71    0.00    9.71    0.00    0.00   0.356   0.353   0.357   0.369   0.369   0.369   0.354   0.344   0.340   0.000
 2015 129     4  13.50  26.50  16.30 -99.000   3.486   0.000   3.486 -99.000 -99.000 -99.000   3.126   0.000   3.126   0.000   0.000   13.85   12.84    0.00   12.84    0.00    0.00   0.343   0.343   0.344   0.357   0.357   0.357   0.347   0.340   0.338   0.000
 2015 130     5  16.40  28.20  15.40 -99.000   4.281   0.000   4.281 -99.000 -99.000 -99.000   3.203   0.000   3.203   0.000   0.000   18.13   16.04    0.00   16.04    0.00    0.00   0.364   0.355   0.359   0.370   0.370   0.363   0.348   0.339   0.335   0.000
 2015 131     6   4.60  21.40  15.80 -99.000   1.114   0.012   1.102 -99.000 -99.000 -99.000   1.114   0.012   1.102   0.000   0.000   19.25   17.15    0.01   17.14    0.00    0.00   0.388   0.172   0.123   0.099   0.083   0.071   0.061   0.055   0.050   0.001
 2015 132     7   9.00  22.30  17.20 -99.000   2.229   0.029   2.200 -99.000 -99.000 -99.000   2.229   0.029   2.200   0.000   0.000   21.47   19.38    0.04   19.34    0.00    0.00   0.242   0.237   0.239   0.247   0.247   0.247   0.247   0.247   0.247   0.003
 2015 133     8  10.90  24.80  15.60 -99.000   2.735   0.044   2.690 -99.000 -99.000 -99.000   2.735   0.044   2.690   0.000   0.000   24.21   22.12    0.09   22.03    0.00    0.00   0.289   0.291   0.291   0.303   0.303   0.303   0.303   0.303   0.303   0.004
 2015 134     9  12.90  26.90  14.20 -99.000   3.272   0.095   3.206 -99.000 -99.000 -99.000   3.271   0.095   3.177   0.000   0.000   27.48   25.39    0.18   25.21    0.00    0.00   0.341   0.345   0.343   0.358   0.358   0.358   0.358   0.358   0.358   0.009
 2015 135    10  12.10  26.20  13.40 -99.000   3.015   0.072   2.942 -99.000 -99.000 -99.000   3.014   0.072   2.942   0.000   0.000   30.50   28.40    0.25   28.15    0.00    0.00   0.328   0.322   0.325   0.336   0.336   0.330   0.323   0.322   0.321   0.007
 2015 136    11  10.00  24.90  14.10 -99.000   2.482   0.070   2.411 -99.000 -99.000 -99.000   2.481   0.070   2.411   0.000   0.000   32.98   30.88    0.32   30.56    0.00    0.00   0.273   0.265   0.268   0.276   0.276   0.270   0.262   0.260   0.260   0.007
 2015 137    12  15.70  27.00  15.10 -99.000   4.009   0.226   3.878 -99.000 -99.000 -99.000   3.369   0.226   3.143   0.000   0.000   36.99   34.25    0.55   33.70    0.00    0.00   0.350   0.345   0.346   0.359   0.359   0.352   0.346   0.344   0.343   0.023
 2015 138    13  14.30  27.50  16.10 -99.000   3.687   0.236   3.551 -99.000 -99.000 -99.000   3.313   0.236   3.078   0.000   0.000   40.67   37.57    0.78   36.78    0.00    0.00   0.338   0.337   0.336   0.350   0.350   0.346   0.342   0.340   0.339   0.024
 2015 139    14  12.80  27.00  19.80 -99.000   3.362   0.259   3.211 -99.000 -99.000 -99.000   3.356   0.259   3.096   0.000   0.000   44.04   40.92    1.04   39.88    0.00    0.00   0.360   0.351   0.337   0.348   0.347   0.343   0.339   0.336   0.335   0.026
 2015 140    15  14.00  26.40  16.80 -99.000   3.584   0.342   3.383 -99.000 -99.000 -99.000   3.456   0.342   3.114   0.000   0.000   47.62   44.38    1.39   42.99    0.00    0.00   0.372   0.367   0.341   0.348   0.344   0.341   0.336   0.332   0.332   0.034
 2015 141    16  15.50  26.70  15.70 -99.000   3.927   0.446   3.662 -99.000 -99.000 -99.000   3.515   0.446   3.069   0.000   0.000   51.55   47.89    1.83   46.06    0.00    0.00   0.353   0.352   0.335   0.344   0.342   0.339   0.336   0.334   0.334   0.045
 2015 142    17  13.50  26.60  16.10 -99.000   3.407   0.269   3.136 -99.000 -99.000 -99.000   3.405   0.269   3.136   0.000   0.000   54.95   51.30    2.10   49.20    0.00    0.00   0.365   0.356   0.352   0.361   0.358   0.340   0.336   0.333   0.333   0.027
 2015 143    18  12.20  26.80  18.70 -99.000   3.151   0.298   2.852 -99.000 -99.000 -99.000   3.149   0.298   2.851   0.000   0.000   58.11   54.44    2.40   52.05    0.00    0.00   0.328   0.319   0.323   0.333   0.330   0.310   0.304   0.302   0.302   0.030
 2015 144    19  14.70  28.20  18.10 -99.000   3.809   0.703   3.371 -99.000 -99.000 -99.000   3.806   0.703   3.103   0.000   0.000   61.92   58.25    3.10   55.15    0.00    0.00   0.348   0.344   0.345   0.358   0.356   0.340   0.337   0.337   0.337   0.070
 2015 145    20  16.20  28.40  19.50 -99.000   4.224   0.886   3.667 -99.000 -99.000 -99.000   3.793   0.742   3.051   0.000   0.000   66.14   62.04    3.84   58.20    0.00    0.00   0.335   0.335   0.335   0.349   0.348   0.338   0.337   0.337   0.337   0.074
 2015 146    21  16.40  28.20  18.90 -99.000   4.234   0.927   3.648 -99.000 -99.000 -99.000   3.595   0.582   3.013   0.000   0.000   70.37   65.64    4.42   61.21    0.00    0.00   0.325   0.330   0.328   0.343   0.343   0.337   0.337   0.335   0.335   0.058
 2015 147    22  14.10  28.30  18.90 -99.000   3.638   0.580   3.124 -99.000 -99.000 -99.000   3.580   0.526   3.054   0.000   0.000   74.01   69.22    4.95   64.27    0.00    0.00   0.353   0.347   0.336   0.343   0.340   0.335   0.335   0.332   0.332   0.053
 2015 148    23  14.20  27.70  12.20 -99.000   3.476   0.519   2.954 -99.000 -99.000 -99.000   3.472   0.519   2.953   0.000   0.000   77.49   72.69    5.47   67.22    0.00    0.00   0.349   0.340   0.325   0.328   0.325   0.322   0.322   0.321   0.319   0.052
 2015 149    24  14.70  27.20  10.40 -99.000   3.497   0.602   2.892 -99.000 -99.000 -99.000   3.492   0.602   2.890   0.000   0.000   80.99   76.18    6.07   70.11    0.00    0.00   0.347   0.335   0.325   0.321   0.315   0.313   0.313   0.313   0.311   0.060
 2015 150    25  16.40  29.00  11.00 -99.000   4.001   0.906   3.238 -99.000 -99.000 -99.000   3.995   0.906   3.089   0.000   0.000   84.99   80.18    6.98   73.20    0.00    0.00   0.363   0.354   0.348   0.344   0.338   0.336   0.336   0.336   0.335   0.091
 2015 151    26  16.50  30.70  12.00 -99.000   4.111   1.055   3.264 -99.000 -99.000 -99.000   4.104   1.055   3.050   0.000   0.000   89.10   84.28    8.03   76.25    0.00    0.00   0.345   0.341   0.337   0.340   0.337   0.337   0.337   0.337   0.337   0.105
 2015 152    27  14.80  29.60  12.40 -99.000   3.620   0.854   2.770 -99.000 -99.000 -99.000   3.614   0.854   2.760   0.000   0.000   92.72   87.90    8.89   79.01    0.00    0.00   0.327   0.313   0.301   0.306   0.303   0.303   0.303   0.303   0.303   0.085
 2015 153    28  15.30  28.70  16.60 -99.000   3.823   1.001   2.825 -99.000 -99.000 -99.000   3.816   1.001   2.814   0.000   0.000   96.54   91.71    9.89   81.82    0.00    0.00   0.334   0.319   0.304   0.313   0.310   0.310   0.310   0.309   0.307   0.100
 2015 154    29  14.20  27.70  16.20 -99.000   3.461   1.051   2.413 -99.000 -99.000 -99.000   3.454   1.051   2.403   0.000   0.000  100.00   95.16   10.94   84.23    0.00    0.00   0.274   0.267   0.259   0.269   0.269   0.269   0.268   0.266   0.262   0.105
 2015 155    30  16.10  27.10  15.40 -99.000   3.838   1.339   2.500 -99.000 -99.000 -99.000   3.720   1.231   2.489   0.000   0.000  103.84   98.88   12.17   86.72    0.00    0.00   0.276   0.275   0.269   0.281   0.281   0.281   0.279   0.276   0.272   0.123
 2015 156    31  15.40  27.10  15.40 -99.000   3.657   1.333   2.325 -99.000 -99.000 -99.000   3.387   1.072   2.315   0.000   0.000  107.50  102.27   13.24   89.03    0.00    0.00   0.272   0.267   0.253   0.258   0.256   0.256   0.255   0.251   0.248   0.107
 2015 157    32  15.60  27.80  15.60 -99.000   3.756   1.397   2.360 -99.000 -99.000 -99.000   3.746   1.397   2.350   0.000   0.000  111.25  106.02   14.64   91.38    0.00    0.00   0.281   0.274   0.257   0.261   0.259   0.259   0.258   0.252   0.248   0.140
 2015 158    33  15.20  27.70  15.90 -99.000   3.627   1.492   2.136 -99.000 -99.000 -99.000   3.617   1.492   2.126   0.000   0.000  114.88  109.64   16.13   93.51    0.00    0.00   0.243   0.241   0.231   0.239   0.239   0.239   0.239   0.228   0.225   0.149
 2015 159    34  15.10  28.00  14.50 -99.000   3.548   1.564   1.983 -99.000 -99.000 -99.000   3.537   1.564   1.973   0.000   0.000  118.43  113.17   17.69   95.48    0.00    0.00   0.219   0.221   0.215   0.224   0.224   0.224   0.224   0.213   0.210   0.156
 2015 160    35  16.00  28.30  14.20 -99.000   3.744   1.721   2.025 -99.000 -99.000 -99.000   3.582   1.570   2.012   0.000   0.000  122.17  116.75   19.26   97.49    0.00    0.00   0.234   0.231   0.231   0.228   0.224   0.222   0.222   0.211   0.208   0.157
 2015 161    36  10.80  27.40  14.70 -99.000   2.521   1.151   1.375 -99.000 -99.000 -99.000   2.513   1.151   1.362   0.000   0.000  124.69  119.27   20.41   98.85    0.00    0.00   0.161   0.157   0.159   0.154   0.150   0.149   0.149   0.145   0.138   0.115
 2015 162    37  15.20  28.30  15.60 -99.000   3.579   1.743   1.851 -99.000 -99.000 -99.000   3.568   1.743   1.825   0.000   0.000  128.27  122.84   22.16  100.68    0.00    0.00   0.206   0.205   0.206   0.205   0.203   0.203   0.203   0.203   0.192   0.174
 2015 163    38  13.20  27.70  16.80 -99.000   3.100   1.569   1.543 -99.000 -99.000 -99.000   3.090   1.569   1.521   0.000   0.000  131.37  125.92   23.73  102.20    0.00    0.00   0.177   0.172   0.175   0.174   0.167   0.166   0.165   0.165   0.160   0.157
 2015 164    39  15.00  28.70  14.70 -99.000   3.504   1.824   1.696 -99.000 -99.000 -99.000   3.491   1.824   1.667   0.000   0.000  134.88  129.42   25.55  103.87    0.00    0.00   0.193   0.189   0.191   0.192   0.183   0.181   0.180   0.180   0.178   0.182
 2015 165    40  15.20  28.80  14.20 -99.000   3.529   1.864   1.690 -99.000 -99.000 -99.000   3.516   1.864   1.652   0.000   0.001  138.40  132.93   27.41  105.52    0.00    0.00   0.184   0.184   0.184   0.189   0.183   0.182   0.182   0.182   0.182   0.186
 2015 166    41  14.90  29.00  15.60 -99.000   3.492   1.882   1.642 -99.000 -99.000 -99.000   3.479   1.882   1.597   0.000   0.001  141.90  136.41   29.30  107.12    0.00    0.00   0.173   0.175   0.175   0.182   0.179   0.178   0.178   0.178   0.178   0.188
 2015 167    42  13.50  28.80  14.90 -99.000   3.132   1.713   1.450 -99.000 -99.000 -99.000   3.120   1.713   1.407   0.000   0.001  145.03  139.53   31.01  108.52    0.00    0.00   0.158   0.156   0.158   0.163   0.162   0.155   0.152   0.152   0.151   0.171
 2015 168    43  11.60  28.60  16.10 -99.000   2.718   1.485   1.262 -99.000 -99.000 -99.000   2.707   1.485   1.222   0.000   0.001  147.75  142.24   32.49  109.74    0.00    0.01   0.139   0.136   0.137   0.142   0.143   0.134   0.131   0.130   0.130   0.149
 2015 169    44  13.40  28.70  15.70 -99.000   3.125   1.727   1.436 -99.000 -99.000 -99.000   3.113   1.727   1.385   0.000   0.001  150.87  145.35   34.22  111.13    0.00    0.01   0.154   0.152   0.153   0.160   0.160   0.153   0.151   0.151   0.151   0.173
 2015 170    45  13.60  27.20  15.40 -99.000   3.105   1.729   1.414 -99.000 -99.000 -99.000   3.092   1.729   1.363   0.000   0.002  153.98  148.44   35.95  112.49    0.00    0.01   0.155   0.151   0.153   0.159   0.159   0.151   0.146   0.145   0.144   0.173
 2015 171    46  12.90  25.90  12.50 -99.000   2.843   1.561   1.318 -99.000 -99.000 -99.000   2.830   1.561   1.269   0.000   0.002  156.82  151.27   37.51  113.76    0.00    0.01   0.144   0.141   0.142   0.147   0.148   0.141   0.136   0.135   0.134   0.156
 2015 172    47  14.00  24.30  14.80 -99.000   3.079   1.684   1.440 -99.000 -99.000 -99.000   3.066   1.684   1.383   0.000   0.002  159.90  154.34   39.19  115.14    0.00    0.01   0.153   0.152   0.152   0.159   0.160   0.155   0.151   0.150   0.150   0.168
 2015 173    48  13.30  26.20  13.00 -99.000   2.949   1.602   1.392 -99.000 -99.000 -99.000   2.936   1.602   1.334   0.000   0.002  162.85  157.28   40.80  116.48    0.00    0.01   0.144   0.145   0.145   0.153   0.153   0.150   0.148   0.147   0.147   0.160
 2015 174    49  14.40  26.30  14.60 -99.000   3.236   1.748   1.542 -99.000 -99.000 -99.000   3.223   1.748   1.475   0.000   0.002  166.08  160.50   42.54  117.95    0.00    0.02   0.166   0.163   0.165   0.171   0.172   0.163   0.159   0.158   0.158   0.175
 2015 175    50  11.90  26.20  13.10 -99.000   2.648   1.420   1.275 -99.000 -99.000 -99.000   2.636   1.420   1.217   0.000   0.002  168.73  163.13   43.96  119.17    0.00    0.02   0.138   0.135   0.137   0.142   0.141   0.134   0.131   0.130   0.129   0.142
 2015 176    51  15.50  26.90  12.40 -99.000   3.456   1.839   1.683 -99.000 -99.000 -99.000   3.441   1.839   1.602   0.000   0.002  172.19  166.58   45.80  120.77    0.00    0.02   0.177   0.176   0.177   0.185   0.185   0.178   0.175   0.174   0.174   0.184
 2015 177    52  13.00  25.50  12.10 -99.000   2.841   1.502   1.399 -99.000 -99.000 -99.000   2.828   1.502   1.326   0.000   0.002  175.03  169.40   47.31  122.10    0.00    0.02   0.152   0.149   0.149   0.151   0.151   0.146   0.143   0.142   0.142   0.150
 2015 178    53  13.70  24.70  11.90 -99.000   2.967   1.557   1.477 -99.000 -99.000 -99.000   2.954   1.557   1.396   0.000   0.003  178.00  172.36   48.86  123.49    0.00    0.02   0.161   0.158   0.157   0.158   0.156   0.153   0.152   0.150   0.150   0.156
 2015 179    54  14.00  25.50  11.20 -99.000   3.042   1.583   1.531 -99.000 -99.000 -99.000   3.028   1.583   1.445   0.000   0.003  181.04  175.39   50.45  124.94    0.00    0.03   0.162   0.161   0.160   0.163   0.163   0.160   0.159   0.159   0.159   0.158
 2015 180    55  15.30  26.30  12.70 -99.000   3.396   1.755   1.727 -99.000 -99.000 -99.000   3.382   1.755   1.627   0.000   0.003  184.44  178.77   52.20  126.57    0.00    0.03   0.177   0.179   0.177   0.184   0.184   0.182   0.181   0.181   0.181   0.175
 2015 181    56  14.90  26.70  12.40 -99.000   3.313   1.699   1.704 -99.000 -99.000 -99.000   3.299   1.699   1.600   0.000   0.003  187.75  182.07   53.90  128.17    0.00    0.03   0.180   0.178   0.179   0.185   0.185   0.176   0.173   0.172   0.172   0.170
 2015 182    57  14.00  28.60  12.40 -99.000   3.195   1.626   1.663 -99.000 -99.000 -99.000   3.181   1.626   1.555   0.000   0.003  190.94  185.25   55.53  129.72    0.00    0.04   0.177   0.173   0.175   0.181   0.181   0.170   0.167   0.166   0.165   0.163
 2015 183    58  14.10  28.00  13.60 -99.000   3.222   1.626   1.696 -99.000 -99.000 -99.000   3.208   1.626   1.582   0.000   0.003  194.17  188.46   57.15  131.30    0.00    0.04   0.175   0.174   0.175   0.183   0.183   0.175   0.173   0.172   0.172   0.163
 2015 184    59  14.60  28.10  13.20 -99.000   3.327   1.664   1.773 -99.000 -99.000 -99.000   3.313   1.664   1.649   0.000   0.003  197.49  191.77   58.82  132.95    0.00    0.04   0.190   0.185   0.184   0.188   0.188   0.181   0.178   0.177   0.177   0.166
 2015 185    60  15.40  28.90  12.10 -99.000   3.522   1.747   1.898 -99.000 -99.000 -99.000   3.507   1.747   1.760   0.000   0.003  201.02  195.28   60.56  134.71    0.00    0.05   0.204   0.200   0.196   0.199   0.198   0.193   0.191   0.190   0.190   0.175
 2015 186    61  12.50  29.10  10.70 -99.000   2.831   1.391   1.543 -99.000 -99.000 -99.000   2.819   1.391   1.427   0.000   0.003  203.85  198.09   61.95  136.14    0.00    0.05   0.159   0.159   0.156   0.161   0.161   0.159   0.157   0.157   0.157   0.139
 2015 187    62  10.20  28.60  10.80 -99.000   2.296   1.120   1.264 -99.000 -99.000 -99.000   2.286   1.120   1.165   0.000   0.003  206.14  200.38   63.07  137.31    0.00    0.05   0.127   0.128   0.126   0.132   0.132   0.130   0.130   0.130   0.130   0.112
 2015 188    63   5.20  23.90  13.10 -99.000   1.126   0.545   0.626 -99.000 -99.000 -99.000   1.119   0.545   0.574   0.000   0.003  207.27  201.50   63.62  137.88    0.00    0.06   0.062   0.063   0.062   0.065   0.065   0.065   0.065   0.065   0.065   0.054
 2015 189    64   1.80  18.60  13.90 -99.000   0.367   0.176   0.206 -99.000 -99.000 -99.000   0.362   0.176   0.187   0.000   0.003  207.64  201.86   63.80  138.07    0.00    0.06   0.020   0.020   0.020   0.021   0.021   0.021   0.021   0.021   0.021   0.018
 2015 190    65  11.30  26.00  12.10 -99.000   2.495   1.188   1.410 -99.000 -99.000 -99.000   2.467   1.188   1.279   0.000   0.020  210.13  204.33   64.98  139.35    0.00    0.08   0.140   0.141   0.137   0.144   0.144   0.143   0.143   0.143   0.143   0.119
 2015 191    66  16.40  29.30  12.30 -99.000   3.771   1.779   2.153 -99.000 -99.000 -99.000   3.703   1.741   1.962   0.000   0.018  213.90  208.03   66.72  141.31    0.00    0.10   0.228   0.224   0.213   0.219   0.217   0.216   0.215   0.215   0.215   0.174
 2015 192    67  14.70  29.60  13.60 -99.000   3.479   1.350   2.308 -99.000 -99.000 -99.000   3.455   1.350   2.105   0.000   0.016  217.38  211.49   68.07  143.41    0.00    0.11   0.247   0.242   0.228   0.233   0.232   0.231   0.231   0.231   0.231   0.135
 2015 193    68  14.00  29.50  12.20 -99.000   3.274   1.063   2.456 -99.000 -99.000 -99.000   3.250   1.063   2.187   0.000   0.018  220.66  214.74   69.14  145.60    0.00    0.13   0.247   0.245   0.235   0.243   0.243   0.243   0.243   0.243   0.243   0.106
 2015 194    69  16.70  30.30  12.60 -99.000   3.951   1.107   3.217 -99.000 -99.000 -99.000   3.924   1.107   2.816   0.000   0.022  224.61  218.66   70.24  148.42    0.00    0.15   0.324   0.316   0.314   0.325   0.320   0.308   0.304   0.302   0.302   0.111
 2015 195    70  15.40  29.70  12.70 -99.000   3.639   0.795   3.136 -99.000 -99.000 -99.000   3.502   0.795   2.707   0.000   0.023  228.25  222.16   71.04  151.12    0.00    0.18   0.310   0.303   0.307   0.317   0.311   0.294   0.290   0.288   0.288   0.079
 2015 196    71  16.10  30.00  12.30 -99.000   3.797   0.636   3.407 -99.000 -99.000 -99.000   3.551   0.636   2.915   0.000   0.023  232.04  225.71   71.68  154.04    0.00    0.20   0.325   0.322   0.324   0.337   0.333   0.320   0.318   0.318   0.318   0.064
 2015 197    72  14.30  27.90  13.10 -99.000   3.305   0.422   3.052 -99.000 -99.000 -99.000   3.013   0.422   2.592   0.000   0.021  235.35  228.73   72.10  156.63    0.00    0.22   0.283   0.285   0.284   0.297   0.295   0.287   0.287   0.287   0.287   0.042
 2015 198    73  16.70  27.30  12.40 -99.000   3.805   0.368   3.588 -99.000 -99.000 -99.000   3.405   0.368   3.037   0.000   0.019  239.15  232.13   72.47  159.67    0.00    0.24   0.348   0.340   0.344   0.356   0.340   0.329   0.327   0.327   0.327   0.037
 2015 199    74  14.80  26.20  11.90 -99.000   3.336   0.244   3.194 -99.000 -99.000 -99.000   2.937   0.244   2.693   0.000   0.016  242.49  235.07   72.71  162.36    0.00    0.25   0.312   0.304   0.307   0.317   0.299   0.290   0.288   0.288   0.288   0.024

*DSSAT Cropping System Model Ver. 4.7.5.007 -  MAR 01, 2026 21:01:02
!                                                                                                                                                                                        Soil evaporation (mm/d) by soil depth (cm):
!                                                                                                                                                                                       0-10   10-20   20-30   30-40   40-50   50-60   60-70   70-80   80-90
@YEAR DOY   DAS   SRAA  TMAXA  TMINA    REFA    EOAA    EOPA    EOSA    KCAA    KCBA    KEAA    ETAA    EPAA    ESAA    EFAA    EMAA    EOAC    ETAC    EPAC    ESAC    EFAC    EMAC    ES1D    ES2D    ES3D    ES4D    ES5D    ES6D    ES7D    ES8D    ES9D   TRWUD
 2015 148     1  14.20  27.70  12.20 -99.000   3.584   0.000   3.584 -99.000 -99.000 -99.000   3.119   0.000   3.119   0.000   0.000    3.58    3.12    0.00    3.12    0.00    0.00   0.355   0.350   0.351   0.360   0.345   0.341   0.340   0.339   0.339   0.000
 2015 149     2  14.70  27.20  10.40 -99.000   3.671   0.000   3.671 -99.000 -99.000 -99.000   3.141   0.000   3.141   0.000   0.000    7.25    6.26    0.00    6.26    0.00    0.00   0.365   0.355   0.359   0.365   0.345   0.339   0.338   0.337   0.337   0.000
 2015 150     3  16.40  29.00  11.00 -99.000   4.190   0.000   4.190 -99.000 -99.000 -99.000   3.084   0.000   3.084   0.000   0.000   11.44    9.34    0.00    9.34    0.00    0.00   0.349   0.345   0.345   0.354   0.341   0.337   0.337   0.337   0.337   0.000
 2015 151     4  16.50  30.70  12.00 -99.000   4.323   0.000   4.323 -99.000 -99.000 -99.000   3.046   0.000   3.046   0.000   0.000   15.77   12.39    0.00   12.39    0.00    0.00   0.338   0.337   0.336   0.347   0.338   0.337   0.337   0.337   0.337   0.000
 2015 152     5  14.80  29.60  12.40 -99.000   3.833   0.000   3.833 -99.000 -99.000 -99.000   3.017   0.000   3.017   0.000   0.000   19.60   15.41    0.00   15.41    0.00    0.00   0.331   0.332   0.330   0.342   0.337   0.337   0.336   0.335   0.335   0.000
 2015 153     6  15.30  28.70  16.60 -99.000   4.033   0.079   3.988 -99.000 -99.000 -99.000   3.066   0.079   2.987   0.000   0.000   23.63   18.47    0.08   18.39    0.00    0.00   0.325   0.329   0.326   0.339   0.336   0.335   0.333   0.332   0.332   0.008
 2015 154     7  14.20  27.70  16.20 -99.000   3.683   0.091   3.631 -99.000 -99.000 -99.000   0.985   0.091   0.894   0.000   0.000   27.32   19.46    0.17   19.29    0.00    0.00   0.730   0.086   0.031   0.017   0.010   0.007   0.005   0.004   0.003   0.009
 2015 155     8  16.10  27.10  15.40 -99.000   4.111   0.128   4.038 -99.000 -99.000 -99.000   3.181   0.128   3.053   0.000   0.000   31.43   22.64    0.30   22.34    0.00    0.00   0.350   0.347   0.350   0.351   0.337   0.332   0.330   0.328   0.328   0.013
 2015 156     9  15.40  27.10  15.40 -99.000   3.971   0.149   3.886 -99.000 -99.000 -99.000   3.252   0.149   3.103   0.000   0.000   35.40   25.89    0.45   25.44    0.00    0.00   0.365   0.355   0.358   0.356   0.339   0.334   0.333   0.332   0.331   0.015
 2015 157    10  15.60  27.80  15.60 -99.000   4.043   0.181   3.939 -99.000 -99.000 -99.000   3.252   0.181   3.071   0.000   0.000   39.44   29.14    0.63   28.52    0.00    0.00   0.349   0.344   0.345   0.348   0.337   0.337   0.337   0.337   0.337   0.018
 2015 158    11  15.20  27.70  15.90 -99.000   3.929   0.207   3.810 -99.000 -99.000 -99.000   3.244   0.207   3.037   0.000   0.000   43.37   32.39    0.83   31.55    0.00    0.00   0.337   0.337   0.336   0.343   0.337   0.337   0.337   0.337   0.336   0.021
 2015 159    12  15.10  28.00  14.50 -99.000   3.863   0.233   3.728 -99.000 -99.000 -99.000   3.240   0.233   3.007   0.000   0.000   47.23   35.63    1.07   34.56    0.00    0.00   0.329   0.332   0.329   0.339   0.337   0.336   0.335   0.335   0.333   0.023
 2015 160    13  16.00  28.30  14.20 -99.000   4.085   0.296   3.913 -99.000 -99.000 -99.000   3.370   0.286   3.084   0.000   0.000   51.32   39.00    1.35   37.64    0.00    0.00   0.356   0.349   0.351   0.357   0.342   0.335   0.332   0.332   0.330   0.029
 2015 161    14  10.80  27.40  14.70 -99.000   2.761   0.124   2.636 -99.000 -99.000 -99.000   2.760   0.124   2.636   0.000   0.000   54.08   41.76    1.48   40.28    0.00    0.00   0.308   0.299   0.303   0.308   0.290   0.284   0.282   0.282   0.281   0.012
 2015 162    15  15.20  28.30  15.60 -99.000   3.930   0.366   3.715 -99.000 -99.000 -99.000   3.449   0.366   3.083   0.000   0.000   58.01   45.21    1.84   43.36    0.00    0.00   0.349   0.344   0.345   0.354   0.340   0.338   0.338   0.338   0.338   0.037
 2015 163    16  13.20  27.70  16.80 -99.000   3.402   0.358   3.176 -99.000 -99.000 -99.000   3.400   0.358   3.042   0.000   0.000   61.41   48.61    2.20   46.40    0.00    0.00   0.336   0.336   0.335   0.347   0.338   0.337   0.337   0.337   0.337   0.036
 2015 164    17  15.00  28.70  14.70 -99.000   3.827   0.515   3.517 -99.000 -99.000 -99.000   3.473   0.463   3.010   0.000   0.000   65.24   52.08    2.67   49.41    0.00    0.00   0.328   0.332   0.329   0.342   0.337   0.337   0.335   0.335   0.335   0.046
 2015 165    18  15.20  28.80  14.20 -99.000   3.859   0.545   3.530 -99.000 -99.000 -99.000   3.489   0.404   3.085   0.000   0.000   69.10   55.57    3.07   52.50    0.00    0.00   0.355   0.348   0.351   0.358   0.342   0.336   0.332   0.332   0.332   0.040
 2015 166    19  14.90  29.00  15.60 -99.000   3.862   0.557   3.525 -99.000 -99.000 -99.000   3.678   0.557   3.120   0.000   0.000   72.96   59.25    3.63   55.62    0.00    0.00   0.364   0.354   0.358   0.364   0.343   0.337   0.334   0.334   0.334   0.056
 2015 167    20  13.50  28.80  14.90 -99.000   3.445   0.368   3.083 -99.000 -99.000 -99.000   3.442   0.368   3.075   0.000   0.000   76.41   62.69    3.99   58.69    0.00    0.00   0.347   0.343   0.344   0.353   0.339   0.337   0.337   0.337   0.337   0.037
 2015 168    21  11.60  28.60  16.10 -99.000   2.959   0.372   2.585 -99.000 -99.000 -99.000   2.956   0.372   2.584   0.000   0.000   79.36   65.65    4.37   61.28    0.00    0.00   0.285   0.285   0.285   0.295   0.287   0.287   0.287   0.287   0.286   0.037
 2015 169    22  13.40  28.70  15.70 -99.000   3.388   0.510   2.875 -99.000 -99.000 -99.000   3.384   0.510   2.874   0.000   0.000   82.75   69.03    4.88   64.15    0.00    0.00   0.313   0.316   0.314   0.326   0.322   0.322   0.321   0.321   0.319   0.051
 2015 170    23  13.60  27.20  15.40 -99.000   3.354   0.566   2.786 -99.000 -99.000 -99.000   3.336   0.552   2.784   0.000   0.000   86.11   72.36    5.43   66.94    0.00    0.00   0.301   0.305   0.303   0.316   0.314   0.314   0.311   0.311   0.309   0.055
 2015 171    24  12.90  25.90  12.50 -99.000   3.050   0.845   2.495 -99.000 -99.000 -99.000   1.418   0.540   0.878   0.000   0.000   89.16   73.78    5.97   67.82    0.00    0.00   0.717   0.085   0.031   0.017   0.010   0.007   0.005   0.004   0.003   0.054
 2015 172    25  14.00  24.30  14.80 -99.000   3.302   0.928   2.691 -99.000 -99.000 -99.000   1.361   0.507   0.854   0.000   0.000   92.46   75.14    6.47   68.67    0.00    0.00   0.693   0.084   0.031   0.017   0.010   0.007   0.005   0.004   0.003   0.051
 2015 173    26  13.30  26.20  13.00 -99.000   3.158   0.590   2.567 -99.000 -99.000 -99.000   3.050   0.487   2.563   0.000   0.000   95.62   78.19    6.96   71.23    0.00    0.00   0.292   0.294   0.280   0.287   0.284   0.284   0.281   0.281   0.279   0.049
 2015 174    27  14.40  26.30  14.60 -99.000   3.498   0.676   2.821 -99.000 -99.000 -99.000   3.493   0.676   2.817   0.000   0.000   99.12   81.69    7.64   74.05    0.00    0.00   0.339   0.329   0.307   0.313   0.310   0.310   0.306   0.303   0.300   0.068
 2015 175    28  11.90  26.20  13.10 -99.000   2.824   0.644   2.178 -99.000 -99.000 -99.000   2.819   0.644   2.174   0.000   0.000  101.94   84.51    8.28   76.22    0.00    0.00   0.251   0.248   0.236   0.244   0.244   0.244   0.241   0.234   0.232   0.064
 2015 176    29  15.50  26.90  12.40 -99.000   3.667   0.912   2.754 -99.000 -99.000 -99.000   3.660   0.912   2.748   0.000   0.000  105.61   88.17    9.19   78.97    0.00    0.00   0.309   0.309   0.299   0.312   0.312   0.312   0.307   0.295   0.293   0.091
 2015 177    30  13.00  25.50  12.10 -99.000   3.001   0.794   2.210 -99.000 -99.000 -99.000   2.995   0.794   2.201   0.000   0.000  108.61   91.16    9.99   81.17    0.00    0.00   0.257   0.251   0.250   0.260   0.249   0.243   0.237   0.228   0.226   0.079
 2015 178    31  13.70  24.70  11.90 -99.000   3.128   0.902   2.235 -99.000 -99.000 -99.000   3.121   0.902   2.219   0.000   0.000  111.74   94.28   10.89   83.39    0.00    0.00   0.258   0.252   0.255   0.263   0.249   0.242   0.237   0.232   0.230   0.090
 2015 179    32  14.00  25.50  11.20 -99.000   3.183   1.021   2.173 -99.000 -99.000 -99.000   3.175   1.021   2.154   0.000   0.000  114.92   97.46   11.91   85.55    0.00    0.00   0.241   0.239   0.240   0.250   0.240   0.236   0.236   0.236   0.235   0.102
 2015 180    33  15.30  26.30  12.70 -99.000   3.532   1.244   2.298 -99.000 -99.000 -99.000   3.523   1.244   2.278   0.000   0.000  118.45  100.98   13.15   87.83    0.00    0.00   0.250   0.250   0.250   0.262   0.255   0.253   0.253   0.253   0.253   0.124
 2015 181    34  14.90  26.70  12.40 -99.000   3.423   1.346   2.085 -99.000 -99.000 -99.000   3.413   1.346   2.067   0.000   0.000  121.87  104.39   14.50   89.89    0.00    0.00   0.236   0.232   0.234   0.242   0.229   0.225   0.223   0.223   0.223   0.135
 2015 182    35  14.00  28.60  12.40 -99.000   3.293   1.340   1.961 -99.000 -99.000 -99.000   3.284   1.340   1.944   0.000   0.000  125.17  107.68   15.84   91.84    0.00    0.00   0.224   0.219   0.222   0.228   0.215   0.210   0.209   0.209   0.209   0.134
 2015 183    36  14.10  28.00  13.60 -99.000   3.297   1.435   1.868 -99.000 -99.000 -99.000   3.287   1.435   1.851   0.000   0.000  128.46  110.96   17.28   93.69    0.00    0.00   0.207   0.205   0.206   0.214   0.206   0.203   0.203   0.203   0.203   0.144
 2015 184    37  14.60  28.10  13.20 -99.000   3.385   1.553   1.839 -99.000 -99.000 -99.000   3.374   1.553   1.821   0.000   0.000  131.85  114.34   18.83   95.51    0.00    0.00   0.212   0.207   0.203   0.208   0.201   0.198   0.197   0.197   0.197   0.155
 2015 185    38  15.40  28.90  12.10 -99.000   3.570   1.697   1.881 -99.000 -99.000 -99.000   3.558   1.697   1.861   0.000   0.000  135.42  117.90   20.53   97.37    0.00    0.00   0.217   0.213   0.206   0.210   0.205   0.203   0.202   0.202   0.202   0.170
 2015 186    39  12.50  29.10  10.70 -99.000   2.856   1.407   1.461 -99.000 -99.000 -99.000   2.846   1.407   1.439   0.000   0.000  138.27  120.74   21.93   98.81    0.00    0.00   0.161   0.161   0.157   0.162   0.160   0.159   0.159   0.159   0.159   0.141
 2015 187    40  10.20  28.60  10.80 -99.000   2.310   1.164   1.158 -99.000 -99.000 -99.000   2.302   1.164   1.138   0.000   0.000  140.59  123.04   23.10   99.95    0.00    0.00   0.124   0.125   0.123   0.129   0.127   0.127   0.127   0.127   0.127   0.116
 2015 188    41   5.20  23.90  13.10 -99.000   1.130   0.580   0.558 -99.000 -99.000 -99.000   1.125   0.580   0.546   0.000   0.001  141.72  124.17   23.68  100.49    0.00    0.00   0.059   0.060   0.059   0.062   0.061   0.061   0.061   0.061   0.061   0.058
 2015 189    42   1.80  18.60  13.90 -99.000   0.368   0.190   0.181 -99.000 -99.000 -99.000   0.365   0.190   0.175   0.000   0.001  142.08  124.53   23.87  100.67    0.00    0.00   0.019   0.019   0.019   0.020   0.020   0.020   0.020   0.020   0.020   0.019
 2015 190    43  11.30  26.00  12.10 -99.000   2.497   1.288   1.234 -99.000 -99.000 -99.000   2.486   1.288   1.197   0.000   0.002  144.58  127.02   25.15  101.87    0.00    0.01   0.131   0.132   0.128   0.135   0.134   0.134   0.134   0.134   0.134   0.129
 2015 191    44  16.40  29.30  12.30 -99.000   3.764   1.984   1.821 -99.000 -99.000 -99.000   3.627   1.863   1.764   0.000   0.003  148.34  130.65   27.02  103.63    0.00    0.01   0.201   0.198   0.198   0.205   0.197   0.193   0.191   0.190   0.190   0.186
 2015 192    45  14.70  29.60  13.60 -99.000   3.432   1.796   1.675 -99.000 -99.000 -99.000   3.418   1.796   1.622   0.000   0.003  151.78  134.06   28.81  105.25    0.00    0.01   0.186   0.182   0.184   0.191   0.181   0.176   0.174   0.174   0.173   0.180
 2015 193    46  14.00  29.50  12.20 -99.000   3.219   1.716   1.542 -99.000 -99.000 -99.000   3.205   1.716   1.488   0.000   0.003  154.99  137.27   30.53  106.74    0.00    0.01   0.165   0.164   0.165   0.173   0.167   0.164   0.163   0.163   0.163   0.172
 2015 194    47  16.70  30.30  12.60 -99.000   3.881   2.081   1.848 -99.000 -99.000 -99.000   3.865   2.081   1.784   0.000   0.003  158.88  141.13   32.61  108.52    0.00    0.02   0.203   0.198   0.201   0.208   0.205   0.196   0.192   0.190   0.190   0.208
 2015 195    48  15.40  29.70  12.70 -99.000   3.567   1.895   1.721 -99.000 -99.000 -99.000   3.552   1.895   1.657   0.000   0.003  162.44  144.69   34.51  110.18    0.00    0.02   0.187   0.184   0.186   0.193   0.193   0.184   0.178   0.176   0.176   0.190
 2015 196    49  16.10  30.00  12.30 -99.000   3.724   1.977   1.805 -99.000 -99.000 -99.000   3.708   1.977   1.732   0.000   0.003  166.17  148.39   36.48  111.91    0.00    0.02   0.190   0.190   0.191   0.199   0.200   0.194   0.190   0.189   0.189   0.198
 2015 197    50  14.30  27.90  13.10 -99.000   3.243   1.728   1.568 -99.000 -99.000 -99.000   3.228   1.728   1.500   0.000   0.003  169.41  151.62   38.21  113.41    0.00    0.02   0.161   0.163   0.163   0.172   0.173   0.169   0.167   0.166   0.166   0.173
 2015 198    51  16.70  27.30  12.40 -99.000   3.739   1.979   1.824 -99.000 -99.000 -99.000   3.722   1.979   1.743   0.000   0.003  173.15  155.34   40.19  115.15    0.00    0.03   0.197   0.195   0.197   0.199   0.196   0.192   0.189   0.189   0.189   0.198
 2015 199    52  14.80  26.20  11.90 -99.000   3.267   1.719   1.609 -99.000 -99.000 -99.000   3.252   1.719   1.533   0.000   0.003  176.42  158.60   41.91  116.69    0.00    0.03   0.177   0.173   0.175   0.174   0.170   0.168   0.166   0.165   0.165   0.172
 2015 200    53  14.50  26.60  13.20 -99.000   3.247   1.698   1.614 -99.000 -99.000 -99.000   3.232   1.698   1.534   0.000   0.003  179.66  161.83   43.61  118.22    0.00    0.03   0.171   0.170   0.171   0.174   0.172   0.170   0.169   0.169   0.169   0.170
 2015 201    54  17.50  28.80  13.80 -99.000   4.038   2.096   2.028 -99.000 -99.000 -99.000   4.021   2.096   1.925   0.000   0.003  183.70  165.85   45.70  120.15    0.00    0.04   0.209   0.211   0.211   0.218   0.217   0.215   0.215   0.215   0.215   0.210
 2015 202    55  13.80  28.60  13.80 -99.000   3.175   1.635   1.612 -99.000 -99.000 -99.000   3.161   1.635   1.526   0.000   0.003  186.88  169.01   47.34  121.67    0.00    0.04   0.162   0.166   0.165   0.173   0.173   0.172   0.172   0.172   0.172   0.164
 2015 203    56  17.50  29.10  15.90 -99.000   4.115   2.587   2.114 -99.000 -99.000 -99.000   2.303   1.441   0.862   0.000   0.004  190.99  171.31   48.78  122.53    0.00    0.04   0.700   0.084   0.031   0.017   0.010   0.007   0.005   0.004   0.003   0.144
 2015 204    57  14.70  29.10  18.10 -99.000   3.514   1.774   1.833 -99.000 -99.000 -99.000   2.773   1.047   1.726   0.000   0.004  194.51  174.09   49.83  124.26    0.00    0.05   0.193   0.193   0.195   0.196   0.192   0.190   0.189   0.189   0.189   0.105
 2015 205    58  17.50  28.50  14.70 -99.000   4.073   2.025   2.162 -99.000 -99.000 -99.000   4.057   2.025   2.032   0.000   0.004  198.58  178.14   51.85  126.29    0.00    0.05   0.238   0.231   0.233   0.230   0.222   0.220   0.219   0.219   0.219   0.203
 2015 206    59  15.00  29.20  16.40 -99.000   3.561   1.752   1.916 -99.000 -99.000 -99.000   3.547   1.752   1.795   0.000   0.004  202.14  181.69   53.60  128.09    0.00    0.06   0.202   0.199   0.201   0.203   0.199   0.198   0.198   0.198   0.198   0.175
 2015 207    60  15.20  29.70  16.40 -99.000   3.627   1.764   1.978 -99.000 -99.000 -99.000   3.613   1.764   1.848   0.000   0.004  205.77  185.30   55.37  129.94    0.00    0.06   0.201   0.203   0.203   0.209   0.207   0.207   0.207   0.207   0.206   0.176
 2015 208    61  17.70  30.20  15.10 -99.000   4.216   1.955   2.410 -99.000 -99.000 -99.000   4.047   1.802   2.245   0.000   0.004  209.98  189.35   57.17  132.18    0.00    0.06   0.239   0.245   0.244   0.254   0.253   0.253   0.253   0.253   0.252   0.180
 2015 209    62  10.20  30.10  13.40 -99.000   2.396   1.072   1.427 -99.000 -99.000 -99.000   2.385   1.072   1.313   0.000   0.004  212.38  191.73   58.24  133.49    0.00    0.07   0.149   0.147   0.148   0.153   0.146   0.143   0.143   0.143   0.142   0.107
 2015 210    63  17.50  30.60  14.10 -99.000   4.172   1.863   2.511 -99.000 -99.000 -99.000   4.155   1.863   2.292   0.000   0.006  216.55  195.89   60.10  135.79    0.00    0.07   0.266   0.259   0.262   0.270   0.252   0.247   0.246   0.246   0.245   0.186
 2015 211    64  17.70  29.20  15.70 -99.000   4.198   1.853   2.555 -99.000 -99.000 -99.000   4.181   1.853   2.328   0.000   0.006  220.75  200.07   61.96  138.11    0.00    0.08   0.260   0.258   0.259   0.270   0.258   0.256   0.256   0.256   0.256   0.185
 2015 212    65  18.20  29.80  14.50 -99.000   4.303   1.859   2.667 -99.000 -99.000 -99.000   4.287   1.859   2.427   0.000   0.006  225.05  204.36   63.82  140.54    0.00    0.09   0.264   0.266   0.266   0.279   0.271   0.271   0.271   0.271   0.270   0.186
 2015 213    66  16.70  29.30  14.40 -99.000   3.922   1.646   2.489 -99.000 -99.000 -99.000   3.852   1.591   2.261   0.000   0.005  228.98  208.21   65.41  142.80    0.00    0.09   0.257   0.254   0.256   0.263   0.250   0.247   0.245   0.245   0.245   0.159
 2015 214    67  18.50  29.10  13.10 -99.000   4.355   1.461   3.176 -99.000 -99.000 -99.000   4.341   1.461   2.881   0.000   0.005  233.33  212.55   66.87  145.68    0.00    0.10   0.333   0.325   0.329   0.334   0.317   0.312   0.310   0.310   0.310   0.146
 2015 215    68  15.90  29.20  15.20 -99.000   3.804   1.089   3.041 -99.000 -99.000 -99.000   3.793   1.089   2.704   0.000   0.006  237.13  216.34   67.96  148.39    0.00    0.10   0.302   0.300   0.301   0.310   0.300   0.298   0.298   0.298   0.298   0.109
 2015 216    69  18.60  29.60  15.40 -99.000   4.471   1.043   3.806 -99.000 -99.000 -99.000   4.183   1.043   3.140   0.000   0.009  241.61  220.53   69.00  151.53    0.00    0.11   0.361   0.352   0.356   0.367   0.353   0.341   0.337   0.336   0.336   0.104
 2015 217    70  18.60  29.90  16.50 -99.000   4.546   0.814   4.043 -99.000 -99.000 -99.000   3.963   0.814   3.149   0.000   0.010  246.15  224.49   69.81  154.68    0.00    0.12   0.361   0.353   0.357   0.369   0.358   0.342   0.337   0.336   0.336   0.081
 2015 218    71  18.70  30.00  16.50 -99.000   4.563   0.622   4.188 -99.000 -99.000 -99.000   3.707   0.622   3.085   0.000   0.011  250.71  228.20   70.44  157.76    0.00    0.13   0.344   0.342   0.343   0.357   0.350   0.338   0.337   0.337   0.337   0.062
 2015 219    72  18.80  30.70  16.90 -99.000   4.627   0.478   4.345 -99.000 -99.000 -99.000   3.519   0.478   3.041   0.000   0.011  255.34  231.72   70.91  160.80    0.00    0.14   0.333   0.334   0.333   0.348   0.344   0.337   0.337   0.337   0.337   0.048
 2015 220    73  18.50  30.50  13.60 -99.000   4.426   0.344   4.225 -99.000 -99.000 -99.000   3.464   0.344   3.120   0.000   0.010  259.77  235.18   71.26  163.92    0.00    0.15   0.357   0.350   0.353   0.365   0.349   0.339   0.336   0.335   0.335   0.034
 2015 221    74  23.60  31.40  12.60 -99.000   5.699   0.334   5.506 -99.000 -99.000 -99.000   3.476   0.334   3.141   0.000   0.009  265.47  238.66   71.59  167.06    0.00    0.16   0.364   0.355   0.358   0.370   0.349   0.339   0.336   0.335   0.335   0.033

*DSSAT Cropping System Model Ver. 4.7.5.007 -  MAR 01, 2026 21:01:02
!                                                                                                                                                                                        Soil evaporation (mm/d) by soil depth (cm):
!                                                                                                                                                                                       0-10   10-20   20-30   30-40   40-50   50-60   60-70   70-80   80-90
@YEAR DOY   DAS   SRAA  TMAXA  TMINA    REFA    EOAA    EOPA    EOSA    KCAA    KCBA    KEAA    ETAA    EPAA    ESAA    EFAA    EMAA    EOAC    ETAC    EPAC    ESAC    EFAC    EMAC    ES1D    ES2D    ES3D    ES4D    ES5D    ES6D    ES7D    ES8D    ES9D   TRWUD
 2015 161     1  10.80  27.40  14.70 -99.000   2.770   0.000   2.770 -99.000 -99.000 -99.000   2.770   0.000   2.770   0.000   0.000    2.77    2.77    0.00    2.77    0.00    0.00   0.315   0.311   0.311   0.319   0.307   0.303   0.302   0.301   0.301   0.000
 2015 162     2  15.20  28.30  15.60 -99.000   4.007   0.000   4.007 -99.000 -99.000 -99.000   3.144   0.000   3.144   0.000   0.000    6.78    5.91    0.00    5.91    0.00    0.00   0.366   0.356   0.359   0.365   0.345   0.339   0.338   0.337   0.337   0.000
 2015 163     3  13.20  27.70  16.80 -99.000   3.475   0.000   3.475 -99.000 -99.000 -99.000   3.086   0.000   3.086   0.000   0.000   10.25    9.00    0.00    9.00    0.00    0.00   0.349   0.345   0.346   0.355   0.342   0.337   0.337   0.337   0.337   0.000
 2015 164     4  15.00  28.70  14.70 -99.000   3.921   0.000   3.921 -99.000 -99.000 -99.000   3.047   0.000   3.047   0.000   0.000   14.17   12.05    0.00   12.05    0.00    0.00   0.338   0.338   0.336   0.347   0.338   0.337   0.337   0.337   0.337   0.000
 2015 165     5  15.20  28.80  14.20 -99.000   3.955   0.000   3.955 -99.000 -99.000 -99.000   3.132   0.000   3.132   0.000   0.000   18.13   15.18    0.00   15.18    0.00    0.00   0.361   0.352   0.355   0.365   0.351   0.340   0.337   0.335   0.335   0.000
 2015 166     6  14.90  29.00  15.60 -99.000   3.946   0.077   3.902 -99.000 -99.000 -99.000   3.229   0.077   3.152   0.000   0.000   22.07   18.41    0.08   18.33    0.00    0.00   0.365   0.355   0.359   0.370   0.355   0.341   0.337   0.335   0.335   0.008
 2015 167     7  13.50  28.80  14.90 -99.000   3.532   0.087   3.483 -99.000 -99.000 -99.000   3.181   0.087   3.094   0.000   0.000   25.61   21.59    0.16   21.42    0.00    0.00   0.349   0.344   0.345   0.358   0.348   0.338   0.337   0.337   0.337   0.009
 2015 168     8  11.60  28.60  16.10 -99.000   3.045   0.053   2.992 -99.000 -99.000 -99.000   3.045   0.053   2.992   0.000   0.000   28.65   24.63    0.22   24.42    0.00    0.00   0.331   0.330   0.329   0.343   0.336   0.331   0.331   0.331   0.331   0.005
 2015 169     9  13.40  28.70  15.70 -99.000   3.501   0.134   3.424 -99.000 -99.000 -99.000   3.155   0.134   3.021   0.000   0.000   32.15   27.79    0.35   27.44    0.00    0.00   0.330   0.332   0.330   0.344   0.339   0.337   0.337   0.336   0.335   0.013
 2015 170    10  13.60  27.20  15.40 -99.000   3.475   0.161   3.383 -99.000 -99.000 -99.000   3.262   0.161   3.101   0.000   0.000   35.63   31.05    0.51   30.54    0.00    0.00   0.357   0.349   0.352   0.362   0.343   0.338   0.335   0.334   0.332   0.016
 2015 171    11  12.90  25.90  12.50 -99.000   3.196   0.099   3.095 -99.000 -99.000 -99.000   3.195   0.099   3.095   0.000   0.000   38.82   34.25    0.61   33.63    0.00    0.00   0.360   0.351   0.354   0.364   0.340   0.334   0.332   0.331   0.330   0.010
 2015 172    12  14.00  24.30  14.80 -99.000   3.450   0.210   3.328 -99.000 -99.000 -99.000   3.294   0.210   3.084   0.000   0.000   42.27   37.54    0.82   36.72    0.00    0.00   0.349   0.344   0.345   0.356   0.340   0.337   0.337   0.337   0.337   0.021
 2015 173    13  13.30  26.20  13.00 -99.000   3.292   0.232   3.157 -99.000 -99.000 -99.000   3.277   0.232   3.045   0.000   0.000   45.56   40.82    1.05   39.76    0.00    0.00   0.337   0.337   0.336   0.349   0.338   0.337   0.337   0.337   0.337   0.023
 2015 174    14  14.40  26.30  14.60 -99.000   3.601   0.296   3.428 -99.000 -99.000 -99.000   3.310   0.296   3.014   0.000   0.000   49.17   44.13    1.35   42.78    0.00    0.00   0.329   0.332   0.329   0.343   0.337   0.337   0.335   0.335   0.335   0.030
 2015 175    15  11.90  26.20  13.10 -99.000   2.928   0.159   2.768 -99.000 -99.000 -99.000   2.927   0.159   2.768   0.000   0.000   52.09   47.05    1.51   45.54    0.00    0.00   0.319   0.312   0.315   0.323   0.307   0.302   0.297   0.297   0.297   0.016
 2015 176    16  15.50  26.90  12.40 -99.000   3.848   0.416   3.602 -99.000 -99.000 -99.000   3.544   0.416   3.128   0.000   0.000   55.94   50.60    1.92   48.67    0.00    0.00   0.365   0.355   0.359   0.366   0.344   0.338   0.334   0.334   0.334   0.042
 2015 177    17  13.00  25.50  12.10 -99.000   3.146   0.232   2.913 -99.000 -99.000 -99.000   3.144   0.232   2.912   0.000   0.000   59.09   53.74    2.16   51.58    0.00    0.00   1.045   0.467   0.329   0.262   0.207   0.176   0.156   0.141   0.129   0.023
 2015 178    18  13.70  24.70  11.90 -99.000   3.276   0.277   2.997 -99.000 -99.000 -99.000   3.273   0.277   2.996   0.000   0.000   62.36   57.01    2.43   54.58    0.00    0.00   0.345   0.340   0.341   0.344   0.331   0.325   0.323   0.323   0.323   0.028
 2015 179    19  14.00  25.50  11.20 -99.000   3.342   0.322   3.018 -99.000 -99.000 -99.000   3.339   0.322   3.017   0.000   0.000   65.71   60.35    2.75   57.60    0.00    0.00   0.338   0.337   0.336   0.344   0.335   0.332   0.332   0.332   0.332   0.032
 2015 180    20  15.30  26.30  12.70 -99.000   3.714   0.656   3.309 -99.000 -99.000 -99.000   3.679   0.646   3.033   0.000   0.000   69.42   64.03    3.40   60.63    0.00    0.00   0.334   0.336   0.333   0.344   0.338   0.337   0.337   0.337   0.336   0.065
 2015 181    21  14.90  26.70  12.40 -99.000   3.614   0.545   3.195 -99.000 -99.000 -99.000   3.566   0.501   3.065   0.000   0.000   73.03   67.60    3.90   63.70    0.00    0.00   0.357   0.350   0.338   0.344   0.337   0.335   0.335   0.335   0.333   0.050
 2015 182    22  14.00  28.60  12.40 -99.000   3.493   0.421   3.070 -99.000 -99.000 -99.000   3.490   0.421   3.069   0.000   0.000   76.53   71.09    4.32   66.76    0.00    0.00   0.363   0.353   0.337   0.341   0.336   0.335   0.335   0.335   0.333   0.042
 2015 183    23  14.10  28.00  13.60 -99.000   3.498   0.493   3.002 -99.000 -99.000 -99.000   3.494   0.493   3.001   0.000   0.000   80.03   74.58    4.82   69.76    0.00    0.00   0.357   0.344   0.340   0.346   0.328   0.323   0.321   0.321   0.321   0.049
 2015 184    24  14.60  28.10  13.20 -99.000   3.607   0.590   3.014 -99.000 -99.000 -99.000   3.602   0.590   3.012   0.000   0.000   83.63   78.18    5.41   72.78    0.00    0.00   0.349   0.340   0.344   0.355   0.331   0.325   0.322   0.322   0.322   0.059
 2015 185    25  15.40  28.90  12.10 -99.000   3.774   0.719   3.051 -99.000 -99.000 -99.000   3.768   0.719   3.048   0.000   0.000   87.41   81.95    6.13   75.82    0.00    0.00   0.343   0.339   0.341   0.353   0.337   0.334   0.334   0.334   0.334   0.072
 2015 186    26  12.50  29.10  10.70 -99.000   3.015   0.651   2.361 -99.000 -99.000 -99.000   3.009   0.651   2.358   0.000   0.000   90.42   84.96    6.78   78.18    0.00    0.00   0.259   0.260   0.259   0.271   0.262   0.262   0.262   0.262   0.262   0.065
 2015 187    27  10.20  28.60  10.80 -99.000   2.429   0.599   1.828 -99.000 -99.000 -99.000   2.425   0.599   1.825   0.000   0.000   92.85   87.38    7.38   80.01    0.00    0.00   0.211   0.206   0.207   0.207   0.200   0.199   0.198   0.198   0.198   0.060
 2015 188    28   5.20  23.90  13.10 -99.000   1.194   0.321   0.872 -99.000 -99.000 -99.000   1.191   0.321   0.870   0.000   0.000   94.04   88.58    7.70   80.88    0.00    0.00   0.102   0.099   0.099   0.098   0.095   0.094   0.094   0.094   0.094   0.032
 2015 189    29   1.80  18.60  13.90 -99.000   0.386   0.115   0.270 -99.000 -99.000 -99.000   0.385   0.115   0.270   0.000   0.000   94.43   88.96    7.81   81.15    0.00    0.00   0.031   0.031   0.031   0.030   0.030   0.029   0.029   0.029   0.029   0.012
 2015 190    30  11.30  26.00  12.10 -99.000   2.615   0.811   1.801 -99.000 -99.000 -99.000   2.609   0.811   1.798   0.000   0.000   97.04   91.57    8.62   82.95    0.00    0.00   0.204   0.203   0.200   0.204   0.199   0.198   0.197   0.197   0.197   0.081
 2015 191    31  16.40  29.30  12.30 -99.000   3.923   1.359   2.560 -99.000 -99.000 -99.000   3.913   1.359   2.555   0.000   0.000  100.97   95.48    9.98   85.50    0.00    0.00   0.295   0.287   0.289   0.295   0.293   0.279   0.274   0.272   0.271   0.136
 2015 192    32  14.70  29.60  13.60 -99.000   3.563   1.303   2.255 -99.000 -99.000 -99.000   3.554   1.303   2.251   0.000   0.000  104.53   99.04   11.29   87.75    0.00    0.00   0.256   0.250   0.253   0.262   0.263   0.248   0.241   0.239   0.239   0.130
 2015 193    33  14.00  29.50  12.20 -99.000   3.324   1.333   1.987 -99.000 -99.000 -99.000   3.315   1.333   1.982   0.000   0.000  107.85  102.35   12.62   89.73    0.00    0.00   0.219   0.218   0.219   0.229   0.229   0.220   0.216   0.216   0.216   0.133
 2015 194    34  16.70  30.30  12.60 -99.000   3.986   1.695   2.289 -99.000 -99.000 -99.000   3.975   1.695   2.280   0.000   0.000  111.84  106.33   14.31   92.01    0.00    0.00   0.265   0.254   0.248   0.260   0.260   0.252   0.248   0.247   0.247   0.169
 2015 195    35  15.40  29.70  12.70 -99.000   3.658   1.579   2.079 -99.000 -99.000 -99.000   3.648   1.579   2.068   0.000   0.000  115.50  109.97   15.89   94.08    0.00    0.00   0.241   0.231   0.222   0.233   0.234   0.229   0.227   0.226   0.226   0.158
 2015 196    36  16.10  30.00  12.30 -99.000   3.795   1.738   2.062 -99.000 -99.000 -99.000   3.783   1.738   2.045   0.000   0.000  119.29  113.76   17.63   96.13    0.00    0.00   0.229   0.225   0.219   0.230   0.231   0.228   0.227   0.227   0.227   0.174
 2015 197    37  14.30  27.90  13.10 -99.000   3.290   1.572   1.724 -99.000 -99.000 -99.000   3.279   1.572   1.707   0.000   0.000  122.58  117.04   19.20   97.83    0.00    0.00   0.200   0.189   0.182   0.190   0.191   0.189   0.189   0.189   0.189   0.157
 2015 198    38  16.70  27.30  12.40 -99.000   3.799   1.840   1.971 -99.000 -99.000 -99.000   3.786   1.840   1.946   0.000   0.000  126.38  120.82   21.04   99.78    0.00    0.00   0.230   0.216   0.206   0.216   0.216   0.215   0.215   0.215   0.215   0.184
 2015 199    39  14.80  26.20  11.90 -99.000   3.289   1.654   1.650 -99.000 -99.000 -99.000   3.277   1.654   1.623   0.000   0.000  129.67  124.10   22.70  101.40    0.00    0.00   0.183   0.178   0.173   0.182   0.181   0.182   0.182   0.182   0.180   0.165
 2015 200    40  14.50  26.60  13.20 -99.000   3.260   1.680   1.597 -99.000 -99.000 -99.000   3.247   1.680   1.567   0.000   0.001  132.93  127.35   24.38  102.97    0.00    0.00   0.171   0.171   0.168   0.177   0.176   0.176   0.176   0.176   0.175   0.168
 2015 201    41  17.50  28.80  13.80 -99.000   4.046   2.117   1.957 -99.000 -99.000 -99.000   3.597   1.684   1.913   0.000   0.001  136.98  130.94   26.06  104.88    0.00    0.00   0.222   0.211   0.203   0.213   0.213   0.213   0.213   0.213   0.212   0.168
 2015 202    42  13.80  28.60  13.80 -99.000   3.192   1.664   1.557 -99.000 -99.000 -99.000   3.180   1.664   1.516   0.000   0.001  140.17  134.12   27.73  106.40    0.00    0.00   0.181   0.168   0.162   0.168   0.167   0.168   0.168   0.168   0.167   0.166
 2015 203    43  17.50  29.10  15.90 -99.000   4.119   2.206   1.955 -99.000 -99.000 -99.000   4.103   2.206   1.898   0.000   0.001  144.29  138.23   29.93  108.30    0.00    0.00   0.216   0.210   0.206   0.211   0.210   0.211   0.211   0.211   0.210   0.221
 2015 204    44  14.70  29.10  18.10 -99.000   3.506   1.914   1.630 -99.000 -99.000 -99.000   3.493   1.914   1.579   0.000   0.001  147.79  141.72   31.85  109.87    0.00    0.01   0.185   0.182   0.179   0.176   0.171   0.172   0.172   0.172   0.170   0.191
 2015 205    45  17.50  28.50  14.70 -99.000   4.050   2.213   1.885 -99.000 -99.000 -99.000   4.034   2.213   1.821   0.000   0.001  151.84  145.75   34.06  111.70    0.00    0.01   0.216   0.211   0.209   0.203   0.199   0.199   0.197   0.194   0.193   0.221
 2015 206    46  15.00  29.20  16.40 -99.000   3.539   1.933   1.654 -99.000 -99.000 -99.000   3.525   1.933   1.592   0.000   0.002  155.38  149.28   35.99  113.29    0.00    0.01   0.180   0.179   0.178   0.179   0.179   0.179   0.177   0.171   0.170   0.193
 2015 207    47  15.20  29.70  16.40 -99.000   3.596   1.994   1.657 -99.000 -99.000 -99.000   3.582   1.994   1.588   0.000   0.002  158.98  152.86   37.98  114.88    0.00    0.01   0.174   0.177   0.175   0.180   0.180   0.180   0.180   0.171   0.170   0.199
 2015 208    48  17.70  30.20  15.10 -99.000   4.166   2.321   1.908 -99.000 -99.000 -99.000   4.149   2.321   1.828   0.000   0.002  163.14  157.01   40.31  116.70    0.00    0.01   0.214   0.210   0.199   0.206   0.204   0.204   0.204   0.194   0.193   0.232
 2015 209    49  10.20  30.10  13.40 -99.000   2.375   1.315   1.097 -99.000 -99.000 -99.000   2.364   1.315   1.049   0.000   0.002  165.52  159.37   41.62  117.75    0.00    0.02   0.125   0.122   0.113   0.118   0.117   0.117   0.117   0.111   0.110   0.131
 2015 210    50  17.50  30.60  14.10 -99.000   4.116   2.267   1.918 -99.000 -99.000 -99.000   4.100   2.267   1.832   0.000   0.002  169.64  163.47   43.89  119.59    0.00    0.02   0.210   0.207   0.198   0.207   0.207   0.208   0.208   0.196   0.192   0.227
 2015 211    51  17.70  29.20  15.70 -99.000   4.144   2.268   1.951 -99.000 -99.000 -99.000   4.128   2.268   1.860   0.000   0.002  173.78  167.60   46.16  121.45    0.00    0.02   0.205   0.208   0.201   0.212   0.212   0.212   0.212   0.202   0.196   0.227
 2015 212    52  18.20  29.80  14.50 -99.000   4.250   2.307   2.025 -99.000 -99.000 -99.000   3.989   2.063   1.926   0.000   0.002  178.03  171.59   48.22  123.37    0.00    0.02   0.223   0.221   0.221   0.219   0.215   0.214   0.214   0.203   0.197   0.206
 2015 213    53  16.70  29.30  14.40 -99.000   3.889   2.093   1.877 -99.000 -99.000 -99.000   3.873   2.093   1.780   0.000   0.002  181.92  175.46   50.31  125.15    0.00    0.02   0.210   0.205   0.207   0.202   0.197   0.195   0.195   0.190   0.179   0.209
 2015 214    54  18.50  29.10  13.10 -99.000   4.252   2.268   2.078 -99.000 -99.000 -99.000   4.234   2.268   1.966   0.000   0.003  186.17  179.70   52.58  127.12    0.00    0.03   0.221   0.220   0.222   0.222   0.219   0.219   0.219   0.220   0.204   0.227
 2015 215    55  15.90  29.20  15.20 -99.000   3.715   1.967   1.838 -99.000 -99.000 -99.000   3.700   1.967   1.733   0.000   0.003  189.89  183.40   54.55  128.85    0.00    0.03   0.189   0.191   0.191   0.196   0.196   0.195   0.195   0.195   0.184   0.197
 2015 216    56  18.60  29.60  15.40 -99.000   4.369   2.294   2.192 -99.000 -99.000 -99.000   4.352   2.294   2.058   0.000   0.003  194.25  187.75   56.84  130.91    0.00    0.03   0.236   0.233   0.235   0.236   0.229   0.226   0.225   0.225   0.212   0.229
 2015 217    57  18.60  29.90  16.50 -99.000   4.441   2.287   2.282 -99.000 -99.000 -99.000   4.424   2.287   2.137   0.000   0.003  198.70  192.17   59.13  133.05    0.00    0.04   0.248   0.242   0.245   0.245   0.236   0.233   0.232   0.232   0.225   0.229
 2015 218    58  18.70  30.00  16.50 -99.000   4.465   2.275   2.329 -99.000 -99.000 -99.000   4.448   2.275   2.173   0.000   0.003  203.16  196.62   61.40  135.22    0.00    0.04   0.242   0.240   0.242   0.247   0.241   0.240   0.240   0.240   0.240   0.228
 2015 219    59  18.80  30.70  16.90 -99.000   4.533   2.286   2.400 -99.000 -99.000 -99.000   4.516   2.286   2.230   0.000   0.004  207.69  201.14   63.69  137.45    0.00    0.04   0.241   0.244   0.244   0.253   0.250   0.250   0.249   0.249   0.249   0.229
 2015 220    60  18.50  30.50  13.60 -99.000   4.339   2.166   2.331 -99.000 -99.000 -99.000   4.081   1.924   2.157   0.000   0.004  212.03  205.22   65.61  139.61    0.00    0.05   0.245   0.243   0.245   0.246   0.239   0.236   0.234   0.234   0.234   0.192
 2015 221    61  23.60  31.40  12.60 -99.000   5.573   2.756   3.034 -99.000 -99.000 -99.000   5.552   2.756   2.796   0.000   0.004  217.61  210.77   68.37  142.40    0.00    0.05   0.325   0.317   0.321   0.317   0.307   0.304   0.302   0.302   0.302   0.276
 2015 222    62  23.90  31.10  15.70 -99.000   5.748   2.816   3.168 -99.000 -99.000 -99.000   5.727   2.816   2.912   0.000   0.004  223.35  216.50   71.18  145.31    0.00    0.06   0.323   0.322   0.324   0.329   0.323   0.323   0.323   0.323   0.323   0.282
 2015 223    63  13.20  28.60  15.70 -99.000   3.084   1.492   1.723 -99.000 -99.000 -99.000   3.071   1.492   1.579   0.000   0.004  226.44  219.57   72.68  146.89    0.00    0.06   0.180   0.177   0.179   0.183   0.174   0.172   0.171   0.171   0.171   0.149
 2015 224    64  19.40  28.80  15.70 -99.000   4.562   2.180   2.583 -99.000 -99.000 -99.000   4.545   2.180   2.365   0.000   0.004  231.00  224.11   74.86  149.26    0.00    0.06   0.273   0.267   0.270   0.276   0.260   0.256   0.254   0.254   0.254   0.218
 2015 225    65  19.40  28.20  15.80 -99.000   4.531   2.123   2.620 -99.000 -99.000 -99.000   4.514   2.123   2.392   0.000   0.004  235.53  228.63   76.98  151.65    0.00    0.07   0.266   0.265   0.266   0.276   0.266   0.263   0.263   0.263   0.263   0.212
 2015 226    66  16.70  28.00  15.40 -99.000   3.875   1.798   2.268 -99.000 -99.000 -99.000   3.860   1.798   2.062   0.000   0.004  239.41  232.49   78.78  153.71    0.00    0.07   0.223   0.226   0.225   0.236   0.231   0.231   0.231   0.230   0.230   0.180
 2015 227    67  19.50  30.20  17.70 -99.000   4.763   1.799   3.248 -99.000 -99.000 -99.000   4.749   1.799   2.951   0.000   0.004  244.17  237.24   80.58  156.66    0.00    0.08   0.336   0.331   0.334   0.341   0.326   0.323   0.321   0.319   0.319   0.180
 2015 228    68  16.20  30.80  15.20 -99.000   3.934   1.257   3.008 -99.000 -99.000 -99.000   3.923   1.257   2.666   0.000   0.004  248.10  241.16   81.83  159.33    0.00    0.08   0.309   0.301   0.305   0.308   0.293   0.289   0.288   0.287   0.287   0.126
 2015 229    69  18.20  29.10  16.20 -99.000   4.359   1.167   3.598 -99.000 -99.000 -99.000   4.230   1.167   3.063   0.000   0.009  252.46  245.39   83.00  162.39    0.00    0.09   0.343   0.340   0.341   0.350   0.339   0.338   0.338   0.338   0.338   0.117
 2015 230    70  19.50  29.90  15.40 -99.000   4.674   0.966   4.068 -99.000 -99.000 -99.000   4.099   0.966   3.133   0.000   0.011  257.14  249.49   83.97  165.52    0.00    0.10   0.361   0.352   0.356   0.366   0.351   0.340   0.337   0.335   0.335   0.097
 2015 231    71  18.80  31.00  20.80 -99.000   4.767   0.754   4.307 -99.000 -99.000 -99.000   3.900   0.754   3.146   0.000   0.013  261.90  253.39   84.72  168.67    0.00    0.11   0.362   0.354   0.357   0.369   0.356   0.341   0.337   0.335   0.335   0.075
 2015 232    72  17.70  30.60  16.00 -99.000   4.301   0.516   3.993 -99.000 -99.000 -99.000   3.601   0.516   3.084   0.000   0.013  266.20  256.99   85.24  171.75    0.00    0.12   0.345   0.342   0.343   0.357   0.348   0.338   0.337   0.337   0.337   0.052
 2015 233    73  19.10  31.80  17.80 -99.000   4.754   0.432   4.501 -99.000 -99.000 -99.000   3.473   0.432   3.041   0.000   0.012  270.96  260.46   85.67  174.79    0.00    0.14   0.333   0.335   0.334   0.348   0.342   0.337   0.337   0.337   0.337   0.043
 2015 234    74  19.10  32.60  16.60 -99.000   4.746   0.325   4.557 -99.000 -99.000 -99.000   3.446   0.325   3.121   0.000   0.011  275.70  263.91   85.99  177.91    0.00    0.15   0.358   0.350   0.353   0.365   0.348   0.339   0.336   0.335   0.335   0.033

*DSSAT Cropping System Model Ver. 4.7.5.007 -  MAR 01, 2026 21:01:02
!                                                                                                                                                                                        Soil evaporation (mm/d) by soil depth (cm):
[...]
 2016 198    67  16.50  31.20  15.90 -99.000   3.989   0.665   3.582 -99.000 -99.000 -99.000   3.601   0.665   2.936   0.000   0.015  225.23  215.90   84.90  130.99    0.00    0.13   0.359   0.338   0.330   0.326   0.318   0.316   0.316   0.316   0.316   0.066
 2016 199    68  13.90  26.30  16.50 -99.000   3.187   0.404   2.944 -99.000 -99.000 -99.000   2.824   0.404   2.420   0.000   0.014  228.42  218.72   85.31  133.41    0.00    0.15   0.291   0.276   0.268   0.268   0.264   0.264   0.264   0.263   0.263   0.040
 2016 200    69  15.90  28.80  11.30 -99.000   3.599   0.346   3.395 -99.000 -99.000 -99.000   3.127   0.346   2.780   0.000   0.012  232.01  221.85   85.65  136.19    0.00    0.16   0.357   0.331   0.328   0.306   0.296   0.293   0.292   0.289   0.288   0.035

*DSSAT Cropping System Model Ver. 4.7.5.007 -  MAR 01, 2026 21:01:02
!                                                                                                                                                                                        Soil evaporation (mm/d) by soil depth (cm):
!                                                                                                                                                                                       0-10   10-20   20-30   30-40   40-50   50-60   60-70   70-80   80-90
@YEAR DOY   DAS   SRAA  TMAXA  TMINA    REFA    EOAA    EOPA    EOSA    KCAA    KCBA    KEAA    ETAA    EPAA    ESAA    EFAA    EMAA    EOAC    ETAC    EPAC    ESAC    EFAC    EMAC    ES1D    ES2D    ES3D    ES4D    ES5D    ES6D    ES7D    ES8D    ES9D   TRWUD
 2016 154     1  10.20  30.20  15.90 -99.000   2.726   0.000   2.726 -99.000 -99.000 -99.000   2.726   0.000   2.726   0.000   0.000    2.73    2.73    0.00    2.73    0.00    0.00   0.352   0.312   0.291   0.296   0.295   0.295   0.295   0.295   0.295   0.000
 2016 155     2  11.60  29.60  15.10 -99.000   3.097   0.000   3.097 -99.000 -99.000 -99.000   2.945   0.000   2.945   0.000   0.000    5.82    5.67    0.00    5.67    0.00    0.00   0.393   0.338   0.314   0.318   0.316   0.316   0.316   0.316   0.316   0.000
 2016 156     3  12.20  30.00  17.80 -99.000   3.324   0.000   3.324 -99.000 -99.000 -99.000   2.954   0.000   2.954   0.000   0.000    9.15    8.63    0.00    8.63    0.00    0.00   0.406   0.344   0.315   0.316   0.315   0.315   0.315   0.315   0.315   0.000
 2016 157     4  14.30  31.70  18.30 -99.000   4.003   0.000   4.003 -99.000 -99.000 -99.000   2.938   0.000   2.938   0.000   0.000   13.15   11.56    0.00   11.56    0.00    0.00   0.395   0.343   0.314   0.316   0.315   0.315   0.315   0.315   0.312   0.000
 2016 158     5  15.80  32.00  16.40 -99.000   4.358   0.000   4.358 -99.000 -99.000 -99.000   2.913   0.000   2.913   0.000   0.000   17.51   14.48    0.00   14.48    0.00    0.00   0.376   0.335   0.311   0.316   0.316   0.316   0.316   0.316   0.310   0.000
 2016 159     6  12.40  29.10  18.40 -99.000   3.341   0.065   3.304 -99.000 -99.000 -99.000   2.950   0.065   2.885   0.000   0.000   20.85   17.43    0.07   17.36    0.00    0.00   0.362   0.330   0.309   0.316   0.316   0.315   0.315   0.315   0.307   0.007
 2016 160     7  12.10  27.70  17.50 -99.000   3.178   0.080   3.132 -99.000 -99.000 -99.000   2.993   0.080   2.913   0.000   0.000   24.03   20.42    0.15   20.27    0.00    0.00   0.393   0.340   0.312   0.316   0.315   0.312   0.311   0.311   0.304   0.008
 2016 161     8  14.60  26.80  14.10 -99.000   3.728   0.120   3.660 -99.000 -99.000 -99.000   3.039   0.120   2.919   0.000   0.000   27.75   23.46    0.27   23.19    0.00    0.00   0.399   0.342   0.313   0.316   0.315   0.313   0.313   0.308   0.300   0.012
 2016 162     9  12.80  29.00  19.30 -99.000   3.468   0.135   3.391 -99.000 -99.000 -99.000   3.091   0.135   2.956   0.000   0.000   31.22   26.55    0.40   26.15    0.00    0.00   0.411   0.362   0.319   0.318   0.315   0.315   0.315   0.305   0.297   0.013
 2016 163    10  14.00  25.70  15.10 -99.000   3.547   0.169   3.450 -99.000 -99.000 -99.000   3.124   0.169   2.954   0.000   0.000   34.77   29.67    0.57   29.10    0.00    0.00   0.398   0.365   0.320   0.318   0.315   0.315   0.315   0.310   0.298   0.017
 2016 164    11  12.80  24.70  12.40 -99.000   3.117   0.171   3.019 -99.000 -99.000 -99.000   3.100   0.171   2.929   0.000   0.000   37.89   32.77    0.74   32.03    0.00    0.00   0.377   0.350   0.315   0.316   0.316   0.316   0.316   0.316   0.305   0.017
 2016 165    12  15.50  28.30  10.50 -99.000   3.867   0.237   3.731 -99.000 -99.000 -99.000   3.138   0.237   2.901   0.000   0.000   41.75   35.91    0.98   34.93    0.00    0.00   0.363   0.340   0.311   0.316   0.316   0.316   0.316   0.315   0.307   0.024
 2016 166    13  12.30  28.00  14.40 -99.000   3.142   0.219   3.015 -99.000 -99.000 -99.000   3.090   0.219   2.870   0.000   0.000   44.90   39.00    1.20   37.80    0.00    0.00   0.352   0.332   0.309   0.316   0.315   0.315   0.315   0.313   0.304   0.022
 2016 167    14  13.70  28.00  16.20 -99.000   3.536   0.296   3.363 -99.000 -99.000 -99.000   3.135   0.296   2.839   0.000   0.000   48.43   42.14    1.49   40.64    0.00    0.00   0.345   0.328   0.308   0.314   0.312   0.311   0.311   0.309   0.301   0.030
 2016 168    15  15.60  27.90  14.70 -99.000   3.960   0.399   3.725 -99.000 -99.000 -99.000   3.260   0.399   2.861   0.000   0.000   52.39   45.40    1.89   43.50    0.00    0.00   0.380   0.334   0.309   0.311   0.308   0.308   0.308   0.306   0.297   0.040
 2016 169    16  16.00  28.70  13.40 -99.000   4.088   0.286   3.800 -99.000 -99.000 -99.000   4.086   0.286   3.800   0.000   0.000   56.48   49.48    2.18   47.30    0.00    0.00   1.560   0.610   0.379   0.294   0.242   0.210   0.187   0.168   0.150   0.029
 2016 170    17  15.70  29.70  13.60 -99.000   4.050   0.554   3.716 -99.000 -99.000 -99.000   3.438   0.554   2.884   0.000   0.000   60.53   52.92    2.73   50.19    0.00    0.00   0.389   0.352   0.316   0.314   0.310   0.307   0.302   0.301   0.292   0.055
 2016 171    18  14.80  29.10  15.30 -99.000   3.813   0.604   3.444 -99.000 -99.000 -99.000   3.522   0.604   2.918   0.000   0.000   64.34   56.44    3.33   53.11    0.00    0.00   0.406   0.366   0.320   0.318   0.315   0.309   0.299   0.297   0.289   0.060
 2016 172    19  14.00  28.80  15.00 -99.000   3.587   0.668   3.172 -99.000 -99.000 -99.000   3.581   0.668   2.913   0.000   0.000   67.93   60.02    4.00   56.02    0.00    0.00   0.397   0.363   0.320   0.318   0.315   0.312   0.307   0.295   0.286   0.067
 2016 173    20  12.50  29.20  15.80 -99.000   3.208   0.435   2.770 -99.000 -99.000 -99.000   3.204   0.435   2.769   0.000   0.000   71.14   63.23    4.44   58.79    0.00    0.00   0.360   0.333   0.302   0.304   0.304   0.304   0.304   0.287   0.272   0.043
 2016 174    21  11.80  28.40  18.40 -99.000   3.034   0.492   2.539 -99.000 -99.000 -99.000   3.030   0.492   2.538   0.000   0.000   74.17   66.26    4.93   61.33    0.00    0.00   0.341   0.306   0.276   0.277   0.276   0.276   0.276   0.264   0.245   0.049
 2016 175    22  12.20  29.30  17.20 -99.000   3.129   0.613   2.512 -99.000 -99.000 -99.000   3.124   0.613   2.511   0.000   0.000   77.30   69.38    5.54   63.84    0.00    0.00   0.335   0.299   0.273   0.276   0.275   0.275   0.275   0.262   0.242   0.061
 2016 176    23  14.70  29.40  16.40 -99.000   3.712   0.866   2.842 -99.000 -99.000 -99.000   3.706   0.866   2.840   0.000   0.000   81.01   73.09    6.41   66.68    0.00    0.00   0.393   0.347   0.309   0.309   0.307   0.307   0.307   0.293   0.268   0.087
 2016 177    24  15.40  27.90  16.60 -99.000   3.821   1.013   2.804 -99.000 -99.000 -99.000   3.814   1.013   2.801   0.000   0.000   84.83   76.90    7.42   69.48    0.00    0.00   0.382   0.342   0.305   0.306   0.303   0.303   0.303   0.295   0.262   0.101
 2016 178    25  15.70  27.70  14.20 -99.000   3.780   1.128   2.647 -99.000 -99.000 -99.000   3.771   1.128   2.643   0.000   0.000   88.61   80.67    8.55   72.12    0.00    0.00   0.367   0.332   0.288   0.285   0.283   0.283   0.283   0.280   0.241   0.113
 2016 179    26  15.90  26.20  14.70 -99.000   3.764   1.250   2.508 -99.000 -99.000 -99.000   3.754   1.250   2.504   0.000   0.000   92.38   84.43    9.80   74.63    0.00    0.00   0.338   0.312   0.274   0.271   0.269   0.269   0.269   0.268   0.234   0.125
 2016 180    27  15.90  27.60  12.80 -99.000   3.736   1.378   2.353 -99.000 -99.000 -99.000   3.726   1.378   2.348   0.000   0.000   96.11   88.15   11.18   76.97    0.00    0.00   0.302   0.282   0.254   0.256   0.256   0.256   0.256   0.256   0.230   0.138
 2016 181    28  14.00  27.20  14.20 -99.000   3.286   1.313   1.969 -99.000 -99.000 -99.000   3.277   1.313   1.964   0.000   0.000   99.40   91.43   12.49   78.94    0.00    0.00   0.244   0.230   0.212   0.217   0.217   0.216   0.216   0.216   0.196   0.131
 2016 182    29  10.40  27.50  13.60 -99.000   2.419   1.037   1.379 -99.000 -99.000 -99.000   2.412   1.037   1.375   0.000   0.000  101.82   93.84   13.53   80.31    0.00    0.00   0.183   0.169   0.151   0.150   0.149   0.147   0.147   0.147   0.133   0.104
 2016 183    30  16.00  28.20  15.30 -99.000   3.795   1.742   2.046 -99.000 -99.000 -99.000   3.783   1.742   2.040   0.000   0.000  105.61   97.62   15.27   82.35    0.00    0.00   0.273   0.252   0.225   0.220   0.218   0.216   0.216   0.216   0.204   0.174
 2016 184    31  12.50  27.50  14.00 -99.000   2.888   1.399   1.485 -99.000 -99.000 -99.000   2.878   1.399   1.480   0.000   0.000  108.50  100.50   16.67   83.83    0.00    0.00   0.188   0.176   0.160   0.160   0.159   0.160   0.160   0.160   0.158   0.140
 2016 185    32  14.70  28.30  16.60 -99.000   3.474   1.775   1.697 -99.000 -99.000 -99.000   3.462   1.775   1.687   0.000   0.000  111.98  103.96   18.44   85.52    0.00    0.00   0.220   0.203   0.195   0.189   0.179   0.176   0.175   0.175   0.175   0.177
 2016 186    33  13.50  27.30  15.80 -99.000   3.133   1.648   1.485 -99.000 -99.000 -99.000   3.121   1.648   1.473   0.000   0.000  115.11  107.08   20.09   86.99    0.00    0.00   0.190   0.175   0.175   0.168   0.156   0.153   0.152   0.152   0.152   0.165
 2016 187    34  12.90  27.90  16.70 -99.000   3.013   1.664   1.354 -99.000 -99.000 -99.000   3.002   1.664   1.338   0.000   0.000  118.12  110.09   21.76   88.33    0.00    0.00   0.166   0.156   0.154   0.151   0.144   0.142   0.142   0.142   0.142   0.166
 2016 188    35  12.40  29.30  16.80 -99.000   2.929   1.686   1.251 -99.000 -99.000 -99.000   2.918   1.686   1.231   0.000   0.000  121.05  113.00   23.44   89.56    0.00    0.00   0.149   0.141   0.138   0.138   0.134   0.133   0.133   0.133   0.133   0.169
 2016 189    36  14.70  28.70  13.90 -99.000   3.363   1.980   1.395 -99.000 -99.000 -99.000   3.348   1.980   1.369   0.000   0.000  124.41  116.35   25.42   90.93    0.00    0.00   0.175   0.162   0.161   0.155   0.146   0.143   0.143   0.142   0.142   0.198
 2016 190    37  14.10  29.40  16.60 -99.000   3.320   1.992   1.347 -99.000 -99.000 -99.000   3.306   1.992   1.314   0.000   0.001  127.73  119.66   27.41   92.24    0.00    0.00   0.169   0.156   0.156   0.148   0.140   0.137   0.136   0.136   0.136   0.199
 2016 191    38  14.00  30.90  16.10 -99.000   3.324   2.056   1.294 -99.000 -99.000 -99.000   3.309   2.056   1.253   0.000   0.001  131.06  122.97   29.47   93.50    0.00    0.00   0.156   0.146   0.144   0.141   0.135   0.133   0.133   0.133   0.133   0.206
 2016 192    39  15.00  31.10  17.70 -99.000   3.599   2.281   1.349 -99.000 -99.000 -99.000   3.584   2.281   1.303   0.000   0.002  134.66  126.55   31.75   94.80    0.00    0.00   0.167   0.154   0.154   0.152   0.140   0.135   0.134   0.134   0.134   0.228
 2016 193    40  14.00  31.40  18.10 -99.000   3.383   2.163   1.250 -99.000 -99.000 -99.000   3.368   2.163   1.206   0.000   0.002  138.04  129.92   33.91   96.01    0.00    0.01   0.154   0.142   0.142   0.142   0.130   0.125   0.124   0.123   0.123   0.216
 2016 194    41  15.90  30.30  16.40 -99.000   3.739   2.422   1.353 -99.000 -99.000 -99.000   3.722   2.422   1.299   0.000   0.002  141.78  133.64   36.34   97.31    0.00    0.01   0.160   0.150   0.148   0.150   0.141   0.138   0.137   0.137   0.137   0.242
 2016 195    42  13.60  31.00  16.50 -99.000   3.219   2.115   1.136 -99.000 -99.000 -99.000   3.203   2.115   1.089   0.000   0.002  145.00  136.84   38.45   98.39    0.00    0.01   0.131   0.123   0.121   0.124   0.119   0.118   0.117   0.117   0.117   0.211
 2016 196    43  16.10  30.80  15.70 -99.000   3.778   2.482   1.334 -99.000 -99.000 -99.000   3.760   2.482   1.278   0.000   0.002  148.77  140.60   40.93   99.67    0.00    0.01   0.162   0.150   0.150   0.145   0.137   0.134   0.133   0.133   0.133   0.248
 2016 197    44  16.10  31.00  17.00 -99.000   3.832   2.501   1.375 -99.000 -99.000 -99.000   3.814   2.501   1.313   0.000   0.002  152.61  144.42   43.43  100.99    0.00    0.01   0.169   0.156   0.156   0.147   0.140   0.137   0.136   0.136   0.136   0.250
 2016 198    45  16.50  31.20  15.90 -99.000   3.899   2.543   1.408 -99.000 -99.000 -99.000   3.881   2.543   1.338   0.000   0.002  156.51  148.30   45.98  102.32    0.00    0.02   0.166   0.155   0.153   0.149   0.145   0.143   0.142   0.142   0.142   0.254
 2016 199    46  13.90  26.30  16.50 -99.000   3.118   2.035   1.126 -99.000 -99.000 -99.000   3.101   2.035   1.067   0.000   0.003  159.62  151.40   48.01  103.39    0.00    0.02   0.128   0.121   0.119   0.119   0.116   0.116   0.116   0.116   0.116   0.203
 2016 200    47  15.90  28.80  11.30 -99.000   3.526   2.285   1.292 -99.000 -99.000 -99.000   3.507   2.285   1.223   0.000   0.003  163.15  154.91   50.30  104.61    0.00    0.02   0.145   0.137   0.134   0.135   0.134   0.134   0.134   0.134   0.134   0.228
 2016 201    48  16.20  29.90  13.90 -99.000   3.713   2.394   1.378 -99.000 -99.000 -99.000   3.694   2.394   1.301   0.000   0.003  166.86  158.60   52.69  105.91    0.00    0.02   0.166   0.154   0.150   0.142   0.139   0.138   0.138   0.138   0.137   0.239
 2016 202    49  16.20  29.10  14.00 -99.000   3.692   2.364   1.391 -99.000 -99.000 -99.000   3.674   2.364   1.310   0.000   0.003  170.55  162.28   55.05  107.22    0.00    0.03   0.171   0.158   0.152   0.142   0.138   0.137   0.137   0.137   0.137   0.236
 2016 203    50  15.80  29.90  14.60 -99.000   3.649   2.319   1.396 -99.000 -99.000 -99.000   3.631   2.319   1.311   0.000   0.003  174.20  165.91   57.37  108.53    0.00    0.03   0.164   0.153   0.148   0.143   0.141   0.141   0.141   0.141   0.141   0.232
 2016 204    51  16.40  29.50  14.30 -99.000   3.760   2.371   1.463 -99.000 -99.000 -99.000   3.742   2.371   1.370   0.000   0.003  177.96  169.65   59.74  109.91    0.00    0.03   0.177   0.163   0.162   0.155   0.145   0.143   0.142   0.142   0.142   0.237
 2016 205    52  12.80  30.70  16.00 -99.000   3.020   1.891   1.196 -99.000 -99.000 -99.000   3.005   1.891   1.113   0.000   0.003  180.98  172.65   61.63  111.02    0.00    0.04   0.143   0.132   0.132   0.128   0.118   0.116   0.115   0.115   0.115   0.189
 2016 206    53  16.80  30.40  19.40 -99.000   4.049   2.511   1.633 -99.000 -99.000 -99.000   4.030   2.511   1.519   0.000   0.004  185.03  176.68   64.15  112.54    0.00    0.04   0.188   0.176   0.174   0.172   0.164   0.162   0.161   0.161   0.161   0.251
 2016 207    54  17.00  29.50  15.40 -99.000   3.936   2.415   1.621 -99.000 -99.000 -99.000   3.917   2.415   1.502   0.000   0.004  188.97  180.60   66.56  114.04    0.00    0.04   0.181   0.171   0.168   0.169   0.164   0.162   0.162   0.162   0.162   0.241
 2016 208    55  17.40  29.50  17.40 -99.000   4.089   2.486   1.715 -99.000 -99.000 -99.000   4.070   2.486   1.583   0.000   0.004  193.06  184.67   69.05  115.62    0.00    0.05   0.202   0.187   0.187   0.177   0.169   0.166   0.165   0.165   0.165   0.249
 2016 209    56  16.70  31.20  16.40 -99.000   3.982   2.399   1.703 -99.000 -99.000 -99.000   3.963   2.399   1.564   0.000   0.004  197.04  188.63   71.45  117.19    0.00    0.05   0.202   0.187   0.186   0.173   0.166   0.163   0.162   0.162   0.162   0.240
 2016 210    57  17.00  30.50  15.80 -99.000   4.000   2.387   1.743 -99.000 -99.000 -99.000   3.981   2.387   1.594   0.000   0.004  201.04  192.61   73.83  118.78    0.00    0.06   0.198   0.185   0.183   0.176   0.171   0.170   0.170   0.170   0.170   0.239
 2016 211    58  17.50  30.30  16.40 -99.000   4.125   2.438   1.830 -99.000 -99.000 -99.000   4.105   2.438   1.667   0.000   0.005  205.16  196.72   76.27  120.45    0.00    0.06   0.214   0.197   0.198   0.191   0.177   0.173   0.172   0.172   0.172   0.244
 2016 212    59  17.20  28.50  16.80 -99.000   3.996   2.337   1.805 -99.000 -99.000 -99.000   3.977   2.337   1.639   0.000   0.005  209.16  200.70   78.61  122.09    0.00    0.07   0.210   0.194   0.193   0.190   0.175   0.171   0.169   0.169   0.169   0.234
 2016 213    60  16.60  28.50  13.60 -99.000   3.760   2.175   1.729 -99.000 -99.000 -99.000   3.741   2.175   1.567   0.000   0.004  212.92  204.44   80.78  123.65    0.00    0.07   0.193   0.181   0.179   0.179   0.169   0.167   0.166   0.166   0.166   0.217
 2016 214    61  17.70  28.20  15.50 -99.000   4.053   2.321   1.893 -99.000 -99.000 -99.000   4.034   2.321   1.712   0.000   0.004  216.97  208.47   83.10  125.37    0.00    0.07   0.206   0.195   0.191   0.194   0.187   0.185   0.185   0.185   0.185   0.232
 2016 215    62  17.80  28.10  15.80 -99.000   4.079   2.313   1.937 -99.000 -99.000 -99.000   4.060   2.313   1.748   0.000   0.004  221.05  212.53   85.42  127.11    0.00    0.08   0.222   0.206   0.206   0.196   0.186   0.184   0.182   0.182   0.182   0.231
 2016 216    63  16.70  29.70  14.40 -99.000   3.915   1.918   2.199 -99.000 -99.000 -99.000   3.899   1.918   1.981   0.000   0.004  224.97  216.43   87.33  129.10    0.00    0.08   0.256   0.237   0.236   0.220   0.210   0.207   0.205   0.205   0.205   0.192
 2016 217    64  17.10  29.90  17.20 -99.000   4.104   1.750   2.675 -99.000 -99.000 -99.000   4.090   1.750   2.340   0.000   0.005  229.07  220.52   89.08  131.44    0.00    0.09   0.291   0.273   0.269   0.259   0.252   0.249   0.249   0.249   0.249   0.175
 2016 218    65  17.80  29.90  18.70 -99.000   4.316   1.565   3.200 -99.000 -99.000 -99.000   4.298   1.565   2.732   0.000   0.011  233.39  224.82   90.65  134.17    0.00    0.10   0.352   0.324   0.324   0.315   0.291   0.284   0.282   0.281   0.281   0.157
 2016 219    66  17.90  30.10  18.00 -99.000   4.349   1.262   3.514 -99.000 -99.000 -99.000   4.209   1.262   2.947   0.000   0.014  237.74  229.03   91.91  137.12    0.00    0.11   0.379   0.350   0.348   0.344   0.314   0.305   0.303   0.302   0.302   0.126
 2016 220    67  17.90  30.10  16.00 -99.000   4.272   0.961   3.662 -99.000 -99.000 -99.000   3.954   0.961   2.994   0.000   0.016  242.01  232.98   92.87  140.11    0.00    0.13   0.372   0.348   0.343   0.343   0.322   0.317   0.316   0.316   0.316   0.096
 2016 221    68  18.10  31.70  15.90 -99.000   4.382   0.757   3.916 -99.000 -99.000 -99.000   3.695   0.757   2.938   0.000   0.016  246.39  236.68   93.63  143.05    0.00    0.14   0.357   0.336   0.329   0.332   0.318   0.316   0.316   0.316   0.316   0.076
 2016 222    69  18.40  32.50  16.90 -99.000   4.517   0.596   4.160 -99.000 -99.000 -99.000   3.632   0.596   3.036   0.000   0.015  250.91  240.31   94.23  146.08    0.00    0.16   0.389   0.360   0.358   0.346   0.322   0.317   0.315   0.315   0.315   0.060
 2016 223    70  17.70  31.50  16.30 -99.000   4.310   0.431   4.056 -99.000 -99.000 -99.000   3.491   0.431   3.060   0.000   0.013  255.22  243.80   94.66  149.14    0.00    0.17   0.397   0.367   0.364   0.347   0.323   0.317   0.315   0.315   0.315   0.043
