*INFO DETAIL FILE

******************************************************************************

*DSSAT Cropping System Model Ver. 4.7.5.007 -  MAR 01, 2026 21:01:02

 CSM     YEAR DOY = 2015 103
 RNMODE = B                                                                    
 PATHEX =                                                                      
 FILEX  = EMEP1403.BNX                                                         
 FILEB  = DSSBatch.v47                                                         
 FILEIO = DSSAT47.INP                                                          
 MODEL  = CRGRO047                                                             
 TRTNUM =     1                                                                

 SOILDYN  YEAR DOY = 2015 103
 The soil file has missing or invalid data.                                    
 Default values have been used for these variables:                            
   ADCOEF                                                                      
 These defaults may or may not be important to your results.                   

 RETC  YEAR DOY = 2015 103
 Soil RETC parameters:                                                         
  LYR DS  SWCN   WCR    Hb Lambd  Alpha     m     n Texture                    
   1  10  0.10 0.094   2.9 0.106  0.016 0.112 1.126 Clay                       
   2  20  0.10 0.097   6.6 0.104  0.008 0.107 1.120 Clay                       
   3  30  0.10 0.095   4.1 0.105  0.012 0.109 1.122 Clay                       
   4  40  0.10 0.099   5.5 0.105  0.010 0.109 1.122 Clay                       
   5  50  0.10 0.099   5.5 0.105  0.010 0.109 1.122 Clay                       
   6  60  0.10 0.099   5.5 0.105  0.010 0.109 1.122 Clay                       
   7  70  0.10 0.099   5.5 0.105  0.010 0.109 1.122 Clay                       
   8  80  0.10 0.099   5.5 0.105  0.010 0.109 1.122 Clay                       
   9  90  0.10 0.099   5.5 0.105  0.010 0.109 1.122 Clay                       

 SOILDYN  YEAR DOY = 2015 103
 Soil ID: GOST000002                                                           
 LATOSSOLO V. DISTROFICO(2015)                                                 
                                                                               
   SALB SWCON    CN  DMOD  SLPF SMPX                                           
   0.14  0.30  83.0  1.00  0.90 IB00                                           
 Soil layer distribution method: 3                                             
      DS DLAYR    LL   DUL   SAT  Root    BD    OC  CLAY  SILT  SAND           
 LYR  cm    cm  frac  frac  frac  Grow g/cm3     %     %     %     %    pH     
   1  10    10 0.283 0.377 0.460 1.000  1.76  1.67  41.1  26.3  32.6   5.0     
   2  20    10 0.292 0.387 0.440 0.800  1.88  1.23  45.2  23.0  31.8   5.0     
   3  30    10 0.286 0.380 0.450 0.600  1.85  1.06  43.2  25.8  31.0   5.0     
   4  40    10 0.299 0.398 0.460 0.300  1.82  0.87  45.4  23.5  31.1   5.0     
   5  50    10 0.299 0.398 0.460 0.100  1.82  0.87  45.4  23.5  31.1   5.0     
   6  60    10 0.299 0.398 0.460 0.000  1.82  0.87  45.4  23.5  31.1   5.0     
   7  70    10 0.299 0.398 0.460 0.000  1.82  0.87  45.4  23.5  31.1   5.0     
   8  80    10 0.299 0.398 0.460 0.000  1.82  0.87  45.4  23.5  31.1   5.0     
   9  90    10 0.299 0.398 0.460 0.000  1.82  0.87  45.4  23.5  31.1   5.0     

 SOILDYN  YEAR DOY = 2015 103
 Additional soil properties                                                    
                Convert                                                        
    Cation Adsrp  ppm /  KSAT  SLCF  TOTN  OrgN                                
   L  Exch  Coef  kg/ha  cm/h     %     % kg/ha                                
   1  10.0   0.0   0.57   0.1   0.0  0.10  1749                                
   2   9.0   0.0   0.53   0.1   0.0  0.10  1869                                
   3   8.0   0.0   0.54   0.1   0.0  0.10  1839                                
   4   8.0   0.0   0.55   0.1   0.0  0.10  1809                                
   5   8.0   0.0   0.55   0.1   0.0  0.10  1809                                
   6   8.0   0.0   0.55   0.1   0.0  0.10  1809                                
   7   8.0   0.0   0.55   0.1   0.0  0.10  1809                                
   8   8.0   0.0   0.55   0.1   0.0  0.10  1809                                
   9   8.0   0.0   0.55   0.1   0.0  0.10  1809                                

 IPWTH   YEAR DOY = 2015 103
 AFGO1401.WTH                                                                  
 Found daily weather data headers for:                                         
   SRAD           Col   7 -  11                                                
   TMAX           Col  13 -  17                                                
   TMIN           Col  19 -  23                                                
   RAIN           Col  25 -  29                                                
   DEWP           Col  31 -  35                                                
   WIND           Col  37 -  41                                                
   PAR            Col  43 -  47                                                
   RHUM           Col  55 -  59                                                

 CO2VAL  YEAR DOY = 2015 103
  714 CO2 data points read from file.                                          
 CO2047.WDA                                                                    

 ENDRUN  YEAR DOY = 2015 172
 Normal end of run        1                                                    

******************************************************************************

*DSSAT Cropping System Model Ver. 4.7.5.007 -  MAR 01, 2026 21:01:02

 CSM     YEAR DOY = 2015 126
 RNMODE = B                                                                    
 PATHEX =                                                                      
 FILEX  = EMEP1403.BNX                                                         
 FILEB  = DSSBatch.v47                                                         
 FILEIO = DSSAT47.INP                                                          
 MODEL  = CRGRO047                                                             
 TRTNUM =     2                                                                

 SOILDYN  YEAR DOY = 2015 126
 The soil file has missing or invalid data.                                    
 Default values have been used for these variables:                            
   ADCOEF                                                                      
 These defaults may or may not be important to your results.                   

 RETC  YEAR DOY = 2015 126
 Soil RETC parameters:                                                         
  LYR DS  SWCN   WCR    Hb Lambd  Alpha     m     n Texture                    
   1  10  0.10 0.094   2.9 0.106  0.016 0.112 1.126 Clay                       
   2  20  0.10 0.097   6.6 0.104  0.008 0.107 1.120 Clay                       
   3  30  0.10 0.095   4.1 0.105  0.012 0.109 1.122 Clay                       
   4  40  0.10 0.099   5.5 0.105  0.010 0.109 1.122 Clay                       
   5  50  0.10 0.099   5.5 0.105  0.010 0.109 1.122 Clay                       
   6  60  0.10 0.099   5.5 0.105  0.010 0.109 1.122 Clay                       
   7  70  0.10 0.099   5.5 0.105  0.010 0.109 1.122 Clay                       
   8  80  0.10 0.099   5.5 0.105  0.010 0.109 1.122 Clay                       
   9  90  0.10 0.099   5.5 0.105  0.010 0.109 1.122 Clay                       

 SOILDYN  YEAR DOY = 2015 126
 Soil ID: GOST000002                                                           
 LATOSSOLO V. DISTROFICO(2015)                                                 
                                                                               
   SALB SWCON    CN  DMOD  SLPF SMPX                                           
   0.14  0.30  83.0  1.00  0.90 IB00                                           
 Soil layer distribution method: 3                                             
      DS DLAYR    LL   DUL   SAT  Root    BD    OC  CLAY  SILT  SAND           
 LYR  cm    cm  frac  frac  frac  Grow g/cm3     %     %     %     %    pH     
   1  10    10 0.283 0.377 0.460 1.000  1.76  1.67  41.1  26.3  32.6   5.0     
   2  20    10 0.292 0.387 0.440 0.800  1.88  1.23  45.2  23.0  31.8   5.0     
   3  30    10 0.286 0.380 0.450 0.600  1.85  1.06  43.2  25.8  31.0   5.0     
   4  40    10 0.299 0.398 0.460 0.300  1.82  0.87  45.4  23.5  31.1   5.0     
   5  50    10 0.299 0.398 0.460 0.100  1.82  0.87  45.4  23.5  31.1   5.0     
   6  60    10 0.299 0.398 0.460 0.000  1.82  0.87  45.4  23.5  31.1   5.0     
   7  70    10 0.299 0.398 0.460 0.000  1.82  0.87  45.4  23.5  31.1   5.0     
   8  80    10 0.299 0.398 0.460 0.000  1.82  0.87  45.4  23.5  31.1   5.0     
   9  90    10 0.299 0.398 0.460 0.000  1.82  0.87  45.4  23.5  31.1   5.0     

 SOILDYN  YEAR DOY = 2015 126
 Additional soil properties                                                    
                Convert                                                        
    Cation Adsrp  ppm /  KSAT  SLCF  TOTN  OrgN                                
   L  Exch  Coef  kg/ha  cm/h     %     % kg/ha                                
   1  10.0   0.0   0.57   0.1   0.0  0.10  1749                                
   2   9.0   0.0   0.53   0.1   0.0  0.10  1869                                
   3   8.0   0.0   0.54   0.1   0.0  0.10  1839                                
   4   8.0   0.0   0.55   0.1   0.0  0.10  1809                                
   5   8.0   0.0   0.55   0.1   0.0  0.10  1809                                
   6   8.0   0.0   0.55   0.1   0.0  0.10  1809                                
   7   8.0   0.0   0.55   0.1   0.0  0.10  1809                                
   8   8.0   0.0   0.55   0.1   0.0  0.10  1809                                
   9   8.0   0.0   0.55   0.1   0.0  0.10  1809                                

 IPWTH   YEAR DOY = 2015 126
 AFGO1401.WTH                                                                  
 Found daily weather data headers for:                                         
   SRAD           Col   7 -  11                                                
   TMAX           Col  13 -  17                                                
   TMIN           Col  19 -  23                                                
   RAIN           Col  25 -  29                                                
   DEWP           Col  31 -  35                                                
   WIND           Col  37 -  41                                                
   PAR            Col  43 -  47                                                
   RHUM           Col  55 -  59                                                

 ENDRUN  YEAR DOY = 2015 199
 Normal end of run        2                                                    

******************************************************************************

*DSSAT Cropping System Model Ver. 4.7.5.007 -  MAR 01, 2026 21:01:02

 CSM     YEAR DOY = 2015 148
 RNMODE = B                                                                    
 PATHEX =                                                                      
 FILEX  = EMEP1403.BNX                                                         
 FILEB  = DSSBatch.v47                                                         
 FILEIO = DSSAT47.INP                                                          
 MODEL  = CRGRO047                                                             
 TRTNUM =     3                                                                

 SOILDYN  YEAR DOY = 2015 148
 The soil file has missing or invalid data.                                    
 Default values have been used for these variables:                            
   ADCOEF                                                                      
 These defaults may or may not be important to your results.                   

 RETC  YEAR DOY = 2015 148
 Soil RETC parameters:                                                         
  LYR DS  SWCN   WCR    Hb Lambd  Alpha     m     n Texture                    
   1  10  0.10 0.094   2.9 0.106  0.016 0.112 1.126 Clay                       
   2  20  0.10 0.097   6.6 0.104  0.008 0.107 1.120 Clay                       
   3  30  0.10 0.095   4.1 0.105  0.012 0.109 1.122 Clay                       
   4  40  0.10 0.099   5.5 0.105  0.010 0.109 1.122 Clay                       
   5  50  0.10 0.099   5.5 0.105  0.010 0.109 1.122 Clay                       
   6  60  0.10 0.099   5.5 0.105  0.010 0.109 1.122 Clay                       
   7  70  0.10 0.099   5.5 0.105  0.010 0.109 1.122 Clay                       
   8  80  0.10 0.099   5.5 0.105  0.010 0.109 1.122 Clay                       
   9  90  0.10 0.099   5.5 0.105  0.010 0.109 1.122 Clay                       

 SOILDYN  YEAR DOY = 2015 148
 Soil ID: GOST000002                                                           
 LATOSSOLO V. DISTROFICO(2015)                                                 
                                                                               
   SALB SWCON    CN  DMOD  SLPF SMPX                                           
   0.14  0.30  83.0  1.00  0.90 IB00                                           
 Soil layer distribution method: 3                                             
      DS DLAYR    LL   DUL   SAT  Root    BD    OC  CLAY  SILT  SAND           
 LYR  cm    cm  frac  frac  frac  Grow g/cm3     %     %     %     %    pH     
   1  10    10 0.283 0.377 0.460 1.000  1.76  1.67  41.1  26.3  32.6   5.0     
   2  20    10 0.292 0.387 0.440 0.800  1.88  1.23  45.2  23.0  31.8   5.0     
   3  30    10 0.286 0.380 0.450 0.600  1.85  1.06  43.2  25.8  31.0   5.0     
   4  40    10 0.299 0.398 0.460 0.300  1.82  0.87  45.4  23.5  31.1   5.0     
   5  50    10 0.299 0.398 0.460 0.100  1.82  0.87  45.4  23.5  31.1   5.0     
   6  60    10 0.299 0.398 0.460 0.000  1.82  0.87  45.4  23.5  31.1   5.0     
   7  70    10 0.299 0.398 0.460 0.000  1.82  0.87  45.4  23.5  31.1   5.0     
   8  80    10 0.299 0.398 0.460 0.000  1.82  0.87  45.4  23.5  31.1   5.0     
   9  90    10 0.299 0.398 0.460 0.000  1.82  0.87  45.4  23.5  31.1   5.0     

 SOILDYN  YEAR DOY = 2015 148
 Additional soil properties                                                    
                Convert                                                        
    Cation Adsrp  ppm /  KSAT  SLCF  TOTN  OrgN                                
   L  Exch  Coef  kg/ha  cm/h     %     % kg/ha                                
   1  10.0   0.0   0.57   0.1   0.0  0.10  1749                                
   2   9.0   0.0   0.53   0.1   0.0  0.10  1869                                
   3   8.0   0.0   0.54   0.1   0.0  0.10  1839                                
   4   8.0   0.0   0.55   0.1   0.0  0.10  1809                                
   5   8.0   0.0   0.55   0.1   0.0  0.10  1809                                
   6   8.0   0.0   0.55   0.1   0.0  0.10  1809                                
   7   8.0   0.0   0.55   0.1   0.0  0.10  1809                                
   8   8.0   0.0   0.55   0.1   0.0  0.10  1809                                
   9   8.0   0.0   0.55   0.1   0.0  0.10  1809                                

 IPWTH   YEAR DOY = 2015 148
 AFGO1401.WTH                                                                  
 Found daily weather data headers for:                                         
   SRAD           Col   7 -  11                                                
   TMAX           Col  13 -  17                                                
   TMIN           Col  19 -  23                                                
   RAIN           Col  25 -  29                                                
   DEWP           Col  31 -  35                                                
   WIND           Col  37 -  41                                                
   PAR            Col  43 -  47                                                
   RHUM           Col  55 -  59                                                

 ENDRUN  YEAR DOY = 2015 221
 Normal end of run        3                                                    

******************************************************************************

*DSSAT Cropping System Model Ver. 4.7.5.007 -  MAR 01, 2026 21:01:02

 CSM     YEAR DOY = 2015 161
 RNMODE = B                                                                    
 PATHEX =                                                                      
 FILEX  = EMEP1403.BNX                                                         
 FILEB  = DSSBatch.v47                                                         
 FILEIO = DSSAT47.INP                                                          
 MODEL  = CRGRO047                                                             
 TRTNUM =     4                                                                

 SOILDYN  YEAR DOY = 2015 161
 The soil file has missing or invalid data.                                    
 Default values have been used for these variables:                            
   ADCOEF                                                                      
 These defaults may or may not be important to your results.                   

 RETC  YEAR DOY = 2015 161
 Soil RETC parameters:                                                         
  LYR DS  SWCN   WCR    Hb Lambd  Alpha     m     n Texture                    
   1  10  0.10 0.094   2.9 0.106  0.016 0.112 1.126 Clay                       
   2  20  0.10 0.097   6.6 0.104  0.008 0.107 1.120 Clay                       
   3  30  0.10 0.095   4.1 0.105  0.012 0.109 1.122 Clay                       
   4  40  0.10 0.099   5.5 0.105  0.010 0.109 1.122 Clay                       
   5  50  0.10 0.099   5.5 0.105  0.010 0.109 1.122 Clay                       
   6  60  0.10 0.099   5.5 0.105  0.010 0.109 1.122 Clay                       
   7  70  0.10 0.099   5.5 0.105  0.010 0.109 1.122 Clay                       
   8  80  0.10 0.099   5.5 0.105  0.010 0.109 1.122 Clay                       
   9  90  0.10 0.099   5.5 0.105  0.010 0.109 1.122 Clay                       

 SOILDYN  YEAR DOY = 2015 161
 Soil ID: GOST000002                                                           
 LATOSSOLO V. DISTROFICO(2015)                                                 
                                                                               
   SALB SWCON    CN  DMOD  SLPF SMPX                                           
   0.14  0.30  83.0  1.00  0.90 IB00                                           
 Soil layer distribution method: 3                                             
      DS DLAYR    LL   DUL   SAT  Root    BD    OC  CLAY  SILT  SAND           
 LYR  cm    cm  frac  frac  frac  Grow g/cm3     %     %     %     %    pH     
   1  10    10 0.283 0.377 0.460 1.000  1.76  1.67  41.1  26.3  32.6   5.0     
   2  20    10 0.292 0.387 0.440 0.800  1.88  1.23  45.2  23.0  31.8   5.0     
   3  30    10 0.286 0.380 0.450 0.600  1.85  1.06  43.2  25.8  31.0   5.0     
   4  40    10 0.299 0.398 0.460 0.300  1.82  0.87  45.4  23.5  31.1   5.0     
   5  50    10 0.299 0.398 0.460 0.100  1.82  0.87  45.4  23.5  31.1   5.0     
   6  60    10 0.299 0.398 0.460 0.000  1.82  0.87  45.4  23.5  31.1   5.0     
   7  70    10 0.299 0.398 0.460 0.000  1.82  0.87  45.4  23.5  31.1   5.0     
   8  80    10 0.299 0.398 0.460 0.000  1.82  0.87  45.4  23.5  31.1   5.0     
   9  90    10 0.299 0.398 0.460 0.000  1.82  0.87  45.4  23.5  31.1   5.0     

 SOILDYN  YEAR DOY = 2015 161
 Additional soil properties                                                    
                Convert                                                        
    Cation Adsrp  ppm /  KSAT  SLCF  TOTN  OrgN                                
   L  Exch  Coef  kg/ha  cm/h     %     % kg/ha                                
   1  10.0   0.0   0.57   0.1   0.0  0.10  1749                                
   2   9.0   0.0   0.53   0.1   0.0  0.10  1869                                
   3   8.0   0.0   0.54   0.1   0.0  0.10  1839                                
   4   8.0   0.0   0.55   0.1   0.0  0.10  1809                                
   5   8.0   0.0   0.55   0.1   0.0  0.10  1809                                
   6   8.0   0.0   0.55   0.1   0.0  0.10  1809                                
   7   8.0   0.0   0.55   0.1   0.0  0.10  1809                                
   8   8.0   0.0   0.55   0.1   0.0  0.10  1809                                
   9   8.0   0.0   0.55   0.1   0.0  0.10  1809                                

 IPWTH   YEAR DOY = 2015 161
 AFGO1401.WTH                                                                  
 Found daily weather data headers for:                                         
   SRAD           Col   7 -  11                                                
   TMAX           Col  13 -  17                                                
   TMIN           Col  19 -  23                                                
   RAIN           Col  25 -  29                                                
   DEWP           Col  31 -  35                                                
   WIND           Col  37 -  41                                                
   PAR            Col  43 -  47                                                
   RHUM           Col  55 -  59                                                

 ENDRUN  YEAR DOY = 2015 234
 Normal end of run        4                                                    

******************************************************************************

*DSSAT Cropping System Model Ver. 4.7.5.007 -  MAR 01, 2026 21:01:02

 CSM     YEAR DOY = 2016 132
 RNMODE = B                                                                    
 PATHEX =                                                                      
 FILEX  = EMEP1403.BNX                                                         
 FILEB  = DSSBatch.v47                                                         
 FILEIO = DSSAT47.INP                                                          
 MODEL  = CRGRO047                                                             
 TRTNUM =     5                                                                

 SOILDYN  YEAR DOY = 2016 132
 The soil file has missing or invalid data.                                    
 Default values have been used for these variables:                            
   ADCOEF                                                                      
 These defaults may or may not be important to your results.                   

 RETC  YEAR DOY = 2016 132
 Soil RETC parameters:                                                         
  LYR DS  SWCN   WCR    Hb Lambd  Alpha     m     n Texture                    
   1  10  0.10 0.091   2.9 0.129  0.015 0.134 1.155 Clay                       
   2  20  0.10 0.087   4.7 0.130  0.011 0.132 1.152 Clay                       
   3  30  0.10 0.081   3.1 0.137  0.015 0.141 1.164 Clay                       
   4  40  0.10 0.080   4.7 0.144  0.011 0.145 1.169 Clay                       
   5  50  0.10 0.080   4.7 0.144  0.011 0.145 1.169 Clay                       
   6  60  0.10 0.080   4.7 0.144  0.011 0.145 1.169 Clay                       
   7  70  0.10 0.080   4.7 0.144  0.011 0.145 1.169 Clay                       
   8  80  0.10 0.080   4.7 0.144  0.011 0.145 1.169 Clay                       
   9  90  0.10 0.080   4.7 0.144  0.011 0.145 1.169 Clay                       

 SOILDYN  YEAR DOY = 2016 132
 Soil ID: GOST000003                                                           
 LATOSSOLO V. DISTROFICO(2016)                                                 
                                                                               
   SALB SWCON    CN  DMOD  SLPF SMPX                                           
   0.14  0.30  83.0  1.00  0.90 IB00                                           
 Soil layer distribution method: 3                                             
      DS DLAYR    LL   DUL   SAT  Root    BD    OC  CLAY  SILT  SAND           
 LYR  cm    cm  frac  frac  frac  Grow g/cm3     %     %     %     %    pH     
   1  10    10 0.274 0.391 0.502 1.000  1.29  1.88  48.3  17.4  34.3   5.0     
   2  20    10 0.262 0.375 0.458 0.800  1.36  1.88  48.1  17.4  34.5   5.0     
   3  30    10 0.244 0.356 0.462 0.600  1.32  1.88  47.5  17.6  34.9   5.0     
   4  40    10 0.243 0.362 0.453 0.300  1.31  1.88  48.8  17.9  33.3   5.0     
   5  50    10 0.243 0.362 0.453 0.100  1.31  1.88  48.8  17.9  33.3   5.0     
   6  60    10 0.243 0.362 0.453 0.000  1.31  1.88  48.8  17.9  33.3   5.0     
   7  70    10 0.243 0.362 0.453 0.000  1.31  1.88  48.8  17.9  33.3   5.0     
   8  80    10 0.243 0.362 0.453 0.000  1.31  1.88  48.8  17.9  33.3   5.0     
   9  90    10 0.243 0.362 0.453 0.000  1.31  1.88  48.8  17.9  33.3   5.0     

 SOILDYN  YEAR DOY = 2016 132
 Additional soil properties                                                    
                Convert                                                        
    Cation Adsrp  ppm /  KSAT  SLCF  TOTN  OrgN                                
   L  Exch  Coef  kg/ha  cm/h     %     % kg/ha                                
   1  10.0   0.0   0.78   0.1   0.0  0.10  1279                                
   2   9.0   0.0   0.74   0.1   0.0  0.10  1349                                
   3   8.0   0.0   0.76   0.1   0.0  0.10  1309                                
   4   8.0   0.0   0.76   0.1   0.0  0.10  1299                                
   5   8.0   0.0   0.76   0.1   0.0  0.10  1299                                
   6   8.0   0.0   0.76   0.1   0.0  0.10  1299                                
   7   8.0   0.0   0.76   0.1   0.0  0.10  1299                                
   8   8.0   0.0   0.76   0.1   0.0  0.10  1299                                
   9   8.0   0.0   0.76   0.1   0.0  0.10  1299                                

 IPWTH   YEAR DOY = 2016 132
 AFGO1401.WTH                                                                  
 Found daily weather data headers for:                                         
   SRAD           Col   7 -  11                                                
   TMAX           Col  13 -  17                                                
   TMIN           Col  19 -  23                                                
   RAIN           Col  25 -  29                                                
   DEWP           Col  31 -  35                                                
   WIND           Col  37 -  41                                                
   PAR            Col  43 -  47                                                
   RHUM           Col  55 -  59                                                

 ENDRUN  YEAR DOY = 2016 200
 Normal end of run        5                                                    

******************************************************************************

*DSSAT Cropping System Model Ver. 4.7.5.007 -  MAR 01, 2026 21:01:02

 CSM     YEAR DOY = 2016 154
 RNMODE = B                                                                    
 PATHEX =                                                                      
 FILEX  = EMEP1403.BNX                                                         
 FILEB  = DSSBatch.v47                                                         
 FILEIO = DSSAT47.INP                                                          
 MODEL  = CRGRO047                                                             
 TRTNUM =     6                                                                

 SOILDYN  YEAR DOY = 2016 154
 The soil file has missing or invalid data.                                    
 Default values have been used for these variables:                            
   ADCOEF                                                                      
 These defaults may or may not be important to your results.                   

 RETC  YEAR DOY = 2016 154
 Soil RETC parameters:                                                         
  LYR DS  SWCN   WCR    Hb Lambd  Alpha     m     n Texture                    
   1  10  0.10 0.091   2.9 0.129  0.015 0.134 1.155 Clay                       
   2  20  0.10 0.087   4.7 0.130  0.011 0.132 1.152 Clay                       
   3  30  0.10 0.081   3.1 0.137  0.015 0.141 1.164 Clay                       
   4  40  0.10 0.080   4.7 0.144  0.011 0.145 1.169 Clay                       
   5  50  0.10 0.080   4.7 0.144  0.011 0.145 1.169 Clay                       
   6  60  0.10 0.080   4.7 0.144  0.011 0.145 1.169 Clay                       
   7  70  0.10 0.080   4.7 0.144  0.011 0.145 1.169 Clay                       
   8  80  0.10 0.080   4.7 0.144  0.011 0.145 1.169 Clay                       
   9  90  0.10 0.080   4.7 0.144  0.011 0.145 1.169 Clay                       

 SOILDYN  YEAR DOY = 2016 154
 Soil ID: GOST000003                                                           
 LATOSSOLO V. DISTROFICO(2016)                                                 
                                                                               
   SALB SWCON    CN  DMOD  SLPF SMPX                                           
   0.14  0.30  83.0  1.00  0.90 IB00                                           
 Soil layer distribution method: 3                                             
      DS DLAYR    LL   DUL   SAT  Root    BD    OC  CLAY  SILT  SAND           
 LYR  cm    cm  frac  frac  frac  Grow g/cm3     %     %     %     %    pH     
   1  10    10 0.274 0.391 0.502 1.000  1.29  1.88  48.3  17.4  34.3   5.0     
   2  20    10 0.262 0.375 0.458 0.800  1.36  1.88  48.1  17.4  34.5   5.0     
   3  30    10 0.244 0.356 0.462 0.600  1.32  1.88  47.5  17.6  34.9   5.0     
   4  40    10 0.243 0.362 0.453 0.300  1.31  1.88  48.8  17.9  33.3   5.0     
   5  50    10 0.243 0.362 0.453 0.100  1.31  1.88  48.8  17.9  33.3   5.0     
   6  60    10 0.243 0.362 0.453 0.000  1.31  1.88  48.8  17.9  33.3   5.0     
   7  70    10 0.243 0.362 0.453 0.000  1.31  1.88  48.8  17.9  33.3   5.0     
   8  80    10 0.243 0.362 0.453 0.000  1.31  1.88  48.8  17.9  33.3   5.0     
   9  90    10 0.243 0.362 0.453 0.000  1.31  1.88  48.8  17.9  33.3   5.0     

 SOILDYN  YEAR DOY = 2016 154
 Additional soil properties                                                    
                Convert                                                        
    Cation Adsrp  ppm /  KSAT  SLCF  TOTN  OrgN                                
   L  Exch  Coef  kg/ha  cm/h     %     % kg/ha                                
   1  10.0   0.0   0.78   0.1   0.0  0.10  1279                                
   2   9.0   0.0   0.74   0.1   0.0  0.10  1349                                
   3   8.0   0.0   0.76   0.1   0.0  0.10  1309                                
   4   8.0   0.0   0.76   0.1   0.0  0.10  1299                                
   5   8.0   0.0   0.76   0.1   0.0  0.10  1299                                
   6   8.0   0.0   0.76   0.1   0.0  0.10  1299                                
   7   8.0   0.0   0.76   0.1   0.0  0.10  1299                                
   8   8.0   0.0   0.76   0.1   0.0  0.10  1299                                
   9   8.0   0.0   0.76   0.1   0.0  0.10  1299                                

 IPWTH   YEAR DOY = 2016 154
 AFGO1401.WTH                                                                  
 Found daily weather data headers for:                                         
   SRAD           Col   7 -  11                                                
   TMAX           Col  13 -  17                                                
   TMIN           Col  19 -  23                                                
   RAIN           Col  25 -  29                                                
   DEWP           Col  31 -  35                                                
   WIND           Col  37 -  41                                                
   PAR            Col  43 -  47                                                
   RHUM           Col  55 -  59                                                

 ENDRUN  YEAR DOY = 2016 223
 Normal end of run        6                                                    

******************************************************************************

*DSSAT Cropping System Model Ver. 4.7.5.007 -  MAR 01, 2026 21:01:02

 CSM     YEAR DOY = 2017 108
 RNMODE = B                                                                    
 PATHEX =                                                                      
 FILEX  = EMEP1403.BNX                                                         
 FILEB  = DSSBatch.v47                                                         
 FILEIO = DSSAT47.INP                                                          
 MODEL  = CRGRO047                                                             
 TRTNUM =     8                                                                

 SOILDYN  YEAR DOY = 2017 108
 The soil file has missing or invalid data.                                    
 Default values have been used for these variables:                            
   ADCOEF                                                                      
 These defaults may or may not be important to your results.                   

 RETC  YEAR DOY = 2017 108
 Soil RETC parameters:                                                         
  LYR DS  SWCN   WCR    Hb Lambd  Alpha     m     n Texture                    
   1  10  0.10 0.090   4.8 0.134  0.011 0.135 1.156 Clay                       
   2  20  0.10 0.086  10.8 0.152  0.005 0.151 1.178 Clay                       
   3  30  0.10 0.085   3.7 0.132  0.013 0.135 1.156 Clay                       
   4  40  0.10 0.080   2.2 0.130  0.018 0.137 1.158 Clay                       
   5  50  0.10 0.080   2.2 0.130  0.018 0.137 1.158 Clay                       
   6  60  0.10 0.080   2.2 0.130  0.018 0.137 1.158 Clay                       
   7  70  0.10 0.080   2.2 0.130  0.018 0.137 1.158 Clay                       
   8  80  0.10 0.080   2.2 0.130  0.018 0.137 1.158 Clay                       
   9  90  0.10 0.080   2.2 0.130  0.018 0.137 1.158 Clay                       

 SOILDYN  YEAR DOY = 2017 108
 Soil ID: GOST000005                                                           
 LATOSSOLO V. DISTROFICO(2017)                                                 
                                                                               
   SALB SWCON    CN  DMOD  SLPF SMPX                                           
   0.14  0.30  83.0  1.00  0.90 IB00                                           
 Soil layer distribution method: 3                                             
      DS DLAYR    LL   DUL   SAT  Root    BD    OC  CLAY  SILT  SAND           
 LYR  cm    cm  frac  frac  frac  Grow g/cm3     %     %     %     %    pH     
   1  10    10 0.272 0.393 0.482 1.000  1.18  1.26  53.3  15.7  31.0   5.0     
   2  20    10 0.259 0.395 0.452 0.800  1.18  1.26  53.3  15.7  31.0   5.0     
   3  30    10 0.258 0.371 0.467 0.600  1.24  1.26  53.3  15.7  31.0   5.0     
   4  40    10 0.243 0.347 0.458 0.300  1.18  1.26  53.3  15.7  31.0   5.0     
   5  50    10 0.243 0.347 0.458 0.100  1.18  1.26  53.3  15.7  31.0   5.0     
   6  60    10 0.243 0.347 0.458 0.000  1.18  1.26  53.3  15.7  31.0   5.0     
   7  70    10 0.243 0.347 0.458 0.000  1.18  1.26  53.3  15.7  31.0   5.0     
   8  80    10 0.243 0.347 0.458 0.000  1.18  1.26  53.3  15.7  31.0   5.0     
   9  90    10 0.243 0.347 0.458 0.000  1.18  1.26  53.3  15.7  31.0   5.0     

 SOILDYN  YEAR DOY = 2017 108
 Additional soil properties                                                    
                Convert                                                        
    Cation Adsrp  ppm /  KSAT  SLCF  TOTN  OrgN                                
   L  Exch  Coef  kg/ha  cm/h     %     % kg/ha                                
   1  10.0   0.0   0.85   0.1   0.0  0.10  1169                                
   2   9.0   0.0   0.85   0.1   0.0  0.10  1169                                
   3   8.0   0.0   0.81   0.1   0.0  0.10  1228                                
   4   8.0   0.0   0.85   0.1   0.0  0.10  1169                                
   5   8.0   0.0   0.85   0.1   0.0  0.10  1169                                
