*N2O emissions output file

*DSSAT Cropping System Model Ver. 4.7.5.007 -  MAR 01, 2026 21:01:02
!              |---------------------------------- Cumulative ---------------------------------|---------------------------------- Daily --------------------------------------|
!               N2Oemit  N2emit  NOemit     CO2   Denit  Nitrif   N2O-denit+nit      N2      NO N2Oemit  N2emit  NOemit     CO2   Denit  Nitrif   N2O-denit+nit      N2      NO   Denitrification (g[N]/ha) by soil depth (cm):                           Nitrification (g[N]/ha) by soil depth (cm):                             N2O flux (g[N]/ha) by soil depth (cm):                                  N2 flux (g[N]/ha) by soil depth (cm):                                   NO flux (g[N]/ha) by soil depth (cm):
!                 kg/ha   kg/ha   kg/ha   kg/ha   kg/ha   kg/ha   kg/ha   kg/ha   kg/ha   kg/ha    g/ha    g/ha    g/ha    g/ha    g/ha    g/ha    g/ha    g/ha    g/ha    g/ha    0-10   10-20   20-30   30-40   40-50   50-60   60-70   70-80   80-90    0-10   10-20   20-30   30-40   40-50   50-60   60-70   70-80   80-90    0-10   10-20   20-30   30-40   40-50   50-60   60-70   70-80   80-90    0-10   10-20   20-30   30-40   40-50   50-60   60-70   70-80   80-90    0-10   10-20   20-30   30-40   40-50   50-60   60-70   70-80   80-90
@YEAR DOY   DAS   N2OEC    N2EC    NOEC   CO2TC    NDNC    NITC   N2ODC   N2ONC   N2FLC   NOFLC   N2OED    N2ED    NOED   CO2TD    NDND   NITRD   N2ODD   N2OND   N2FLD   NOFLD   NDN1D   NDN2D   NDN3D   NDN4D   NDN5D   NDN6D   NDN7D   NDN8D   NDN9D   NIT1D   NIT2D   NIT3D   NIT4D   NIT5D   NIT6D   NIT7D   NIT8D   NIT9D   N2O1D   N2O2D   N2O3D   N2O4D   N2O5D   N2O6D   N2O7D   N2O8D   N2O9D   N2F1D   N2F2D   N2F3D   N2F4D   N2F5D   N2F6D   N2F7D   N2F8D   N2F9D   NOF1D   NOF2D   NOF3D   NOF4D   NOF5D   NOF6D   NOF7D   NOF8D   NOF9D   
 2015 103     1    0.00    0.00    0.00       6    0.00     1.8   0.000   0.002   0.000   0.002     0.0     0.0     0.0    5888     0.0    1775    0.00    1.77    0.00    2.00     0.0     0.0     0.0     0.0     0.0     0.0     0.0     0.0     0.0    195.    207.    203.    198.    197.    195.    194.    193.    192.     0.2     0.2     0.2     0.2     0.2     0.2     0.2     0.2     0.2     0.0     0.0     0.0     0.0     0.0     0.0     0.0     0.0     0.0     0.3     0.2     0.2     0.2     0.2     0.2     0.2     0.2     0.2
 2015 104     2    0.00    0.00    0.00      12    0.00     2.9   0.000   0.003   0.000   0.003     0.0     0.0     0.0    5626     0.0    1118    0.00    1.12    0.00    0.69     0.0     0.0     0.0     0.0     0.0     0.0     0.0     0.0     0.0    534.     29.     33.     30.     31.     58.     66.    169.    168.     0.5     0.0     0.0     0.0     0.0     0.1     0.1     0.2     0.2     0.0     0.0     0.0     0.0     0.0     0.0     0.0     0.0     0.0     0.2     0.0     0.0     0.0     0.0     0.0     0.1     0.2     0.1
 2015 105     3    0.00    0.00    0.00      17    0.00     4.1   0.000   0.004   0.000   0.003     0.0     0.0     0.0    5575     0.0    1203    0.00    1.20    0.00    0.53     0.0     0.0     0.0     0.0     0.0     0.0     0.0     0.0     0.0    795.     31.     34.     29.     28.     30.     54.     56.    146.     0.8     0.0     0.0     0.0     0.0     0.0     0.1     0.1     0.1     0.0     0.0     0.0     0.0     0.0     0.0     0.0     0.0     0.0     0.3     0.0     0.0     0.0     0.0     0.0     0.0     0.0     0.1
 2015 106     4    0.00    0.00    0.00      23    0.00     5.6   0.000   0.006   0.000   0.004     0.0     0.0     0.0    5717     0.0    1498    0.00    1.50    0.00    0.57     0.0     0.0     0.0     0.0     0.0     0.0     0.0     0.0     0.0   1075.     49.     42.     33.     33.     33.     50.     54.    129.     1.1     0.0     0.0     0.0     0.0     0.0     0.0     0.1     0.1     0.0     0.0     0.0     0.0     0.0     0.0     0.0     0.0     0.0     0.4     0.0     0.0     0.0     0.0     0.0     0.0     0.0     0.1
 2015 107     5    0.00    0.00    0.00      28    0.00     6.7   0.000   0.007   0.000   0.004     0.0     0.0     0.0    5473     0.0    1058    0.00    1.06    0.00    0.27     0.0     0.0     0.0     0.0     0.0     0.0     0.0     0.0     0.0    780.     50.     36.     30.     30.     28.     27.     35.     42.     0.8     0.1     0.0     0.0     0.0     0.0     0.0     0.0     0.0     0.0     0.0     0.0     0.0     0.0     0.0     0.0     0.0     0.0     0.2     0.0     0.0     0.0     0.0     0.0     0.0     0.0     0.0
 2015 108     6    0.00    0.00    0.00      34    0.48     7.9   0.006   0.008   0.475   0.005     0.1     0.6     0.0    5605   481.7    1269    6.38    1.27  475.30    1.28    58.5    61.3    66.2    72.1    73.5    74.4    75.5     0.0     0.0    965.     58.     46.     34.     33.     31.     29.     34.     39.     1.9     0.8     1.0     1.0     1.0     1.0     1.0     0.0     0.0    57.5    60.5    65.3    71.2    72.6    73.5    74.6     0.0     0.0     0.4     0.1     0.2     0.1     0.1     0.1     0.1     0.0     0.0
 2015 109     7    0.00    0.00    0.00      39    1.08     8.9   0.013   0.009   1.065   0.006     0.0     0.6     0.0    5408   596.4    1001    6.30    1.00  590.11    1.11    66.5    60.7    74.7    75.7    78.5    79.3    79.8    81.1     0.0    741.     56.     39.     32.     31.     30.     28.     25.     19.     1.5     0.7     0.8     0.8     0.8     0.8     0.8     1.0     0.0    65.8    60.1    74.0    75.0    77.7    78.5    79.0    80.1     0.0     0.2     0.1     0.1     0.1     0.1     0.1     0.1     0.1     0.0
 2015 110     8    0.00    0.00    0.00      45    1.44    10.3   0.016   0.010   1.420   0.007     0.1     2.5     0.0    5822   357.7    1394    3.53    1.39  354.18    0.88    46.4    33.8    44.2    44.5    46.4    47.0    47.4    48.1     0.0    992.     81.     61.     50.     49.     47.     45.     39.     32.     1.5     0.4     0.5     0.5     0.5     0.5     0.5     0.6     0.0    45.9    33.5    43.8    44.0    45.9    46.6    46.9    47.5     0.0     0.3     0.1     0.1     0.1     0.1     0.1     0.1     0.1     0.0
 2015 111     9    0.00    0.00    0.00      51    1.92    11.2   0.021   0.011   1.904   0.008     0.0     0.4     0.0    5652   488.9     879    4.69    0.88  484.25    0.91   102.1    70.5    61.6    47.5    42.3    40.9    40.7    41.2    42.2    504.     50.     50.     48.     51.     50.     48.     43.     35.     1.4     0.6     0.6     0.5     0.5     0.4     0.4     0.4     0.7   101.2    69.9    61.0    47.0    41.9    40.5    40.3    40.8    41.6     0.2     0.1     0.1     0.1     0.1     0.1     0.1     0.1     0.1
 2015 112    10    0.00    0.01    0.00      56    2.49    12.2   0.026   0.012   2.461   0.009     0.0     1.5     0.0    5712   562.7    1001    5.11    1.00  557.62    0.96    77.6    63.5    74.8    77.0    80.9    64.6    45.0    39.9    39.4    662.     58.     43.     34.     33.     40.     48.     45.     38.     1.4     0.6     0.7     0.7     0.7     0.6     0.5     0.4     0.5    76.9    62.9    74.2    76.3    80.2    64.0    44.6    39.5    38.9     0.2     0.1     0.1     0.1     0.1     0.1     0.1     0.1     0.1
 2015 113    11    0.00    0.01    0.00      62    2.81    13.5   0.029   0.014   2.778   0.010     0.2     5.8     0.0    5873   320.0    1329    3.16    1.33  316.80    0.84    50.5    33.8    43.1    44.4    46.9    36.6    23.9    20.6    20.1    868.     82.     64.     52.     50.     54.     58.     54.     46.     1.4     0.4     0.5     0.5     0.5     0.4     0.3     0.3     0.3    50.0    33.5    42.7    44.0    46.5    36.3    23.7    20.4    19.9     0.3     0.1     0.1     0.1     0.1     0.1     0.1     0.1     0.1
 2015 114    12    0.00    0.01    0.00      68    3.42    14.3   0.034   0.014   3.382   0.011     0.0     0.7     0.0    5515   608.8     766    5.29    0.77  603.50    0.92    87.1    65.2    71.6    73.5    77.4    78.9    79.5    51.0    24.5    455.     52.     42.     35.     34.     33.     31.     40.     44.     1.2     0.6     0.7     0.7     0.7     0.7     0.7     0.5     0.3    86.4    64.7    71.0    72.8    76.8    78.3    78.9    50.5    24.2     0.2     0.1     0.1     0.1     0.1     0.1     0.1     0.1     0.1
 2015 115    13    0.00    0.02    0.00      74    3.95    15.3   0.039   0.015   3.910   0.012     0.1     4.2     0.0    5712   533.1     999    4.80    1.00  528.26    0.93    62.2    57.5    58.2    66.2    69.1    70.2    70.6    51.5    27.6    656.     58.     52.     39.     38.     37.     35.     40.     43.     1.3     0.6     0.6     0.6     0.6     0.6     0.7     0.5     0.3    61.6    57.0    57.6    65.6    68.5    69.6    70.0    51.0    27.4     0.2     0.1     0.1     0.1     0.1     0.1     0.1     0.1     0.1
 2015 116    14    0.00    0.03    0.00      79    4.25    16.6   0.042   0.017   4.209   0.013     0.3    11.8     0.1    5897   302.4    1297    3.01    1.30  299.35    0.84    38.6    29.7    32.8    38.3    40.1    40.8    41.1    28.5    12.5    819.     84.     72.     57.     56.     54.     52.     52.     51.     1.3     0.4     0.4     0.4     0.4     0.4     0.4     0.3     0.2    38.1    29.4    32.5    38.0    39.7    40.4    40.7    28.2    12.4     0.3     0.1     0.1     0.1     0.1     0.1     0.1     0.1     0.0
 2015 117    15    0.00    0.03    0.00      85    4.60    17.5   0.046   0.017   4.550   0.013     0.0     1.4     0.0    5777   343.8     894    3.29    0.89  340.50    0.74   104.9    42.2    27.6    31.9    33.1    33.5    33.7    25.2    11.7    413.     71.     75.     60.     59.     57.     55.     53.     51.     1.3     0.5     0.4     0.4     0.4     0.4     0.4     0.3     0.2   103.9    41.8    27.4    31.6    32.8    33.2    33.3    24.9    11.6     0.2     0.1     0.1     0.1     0.1     0.1     0.1     0.1     0.0
 2015 118    16    0.00    0.04    0.00      91    4.86    18.6   0.048   0.019   4.815   0.014     0.2     7.8     0.0    5859   268.0    1105    2.71    1.11  265.25    0.74    68.1    38.4    23.4    26.4    26.9    26.9    26.9    21.0    10.0    601.     74.     77.     63.     63.     61.     59.     56.     52.     1.3     0.4     0.3     0.3     0.3     0.3     0.3     0.3     0.2    67.4    38.0    23.1    26.2    26.6    26.6    26.6    20.8     9.9     0.2     0.1     0.1     0.1     0.1     0.1     0.1     0.1     0.0
 2015 119    17    0.00    0.04    0.00      97    5.52    20.3   0.054   0.020   5.468   0.015     0.0     0.5     0.0    5442   658.7    1684    5.64    1.68  653.05    1.09    94.5    53.5    64.4    68.6    75.1    78.8    80.8    82.3    60.6   1389.     58.     43.     36.     34.     33.     31.     28.     32.     2.2     0.5     0.6     0.6     0.7     0.7     0.7     0.7     0.6    93.8    53.0    63.9    68.0    74.5    78.2    80.1    81.6    60.0     0.3     0.1     0.1     0.1     0.1     0.1     0.1     0.1     0.1
 2015 120    18    0.00    0.05    0.00     102    5.90    23.3   0.058   0.023   5.842   0.016     0.2     7.4     0.0    5773   377.6    2989    3.63    2.99  374.01    1.15    65.0    23.2    34.6    38.3    42.9    45.5    46.7    47.7    33.7   2556.     81.     64.     53.     52.     50.     48.     43.     42.     3.2     0.3     0.4     0.4     0.5     0.5     0.5     0.5     0.4    64.4    23.0    34.2    38.0    42.5    45.0    46.3    47.3    33.3     0.5     0.1     0.1     0.1     0.1     0.1     0.1     0.1     0.1
 2015 121    19    0.00    0.05    0.00     107    6.33    25.0   0.061   0.025   6.268   0.017     0.1     3.7     0.0    4753   429.7    1781    3.91    1.78  425.83    0.91    80.6    50.3    55.9    57.2    41.5    37.9    37.6    38.3    30.4   1497.     39.     31.     28.     38.     40.     39.     36.     34.     2.2     0.5     0.5     0.5     0.4     0.4     0.4     0.4     0.3    79.8    49.9    55.4    56.7    41.1    37.6    37.3    38.0    30.1     0.3     0.1     0.1     0.1     0.1     0.1     0.1     0.1     0.1
 2015 122    20    0.00    0.06    0.00     112    6.56    27.4   0.064   0.027   6.499   0.018     0.4    16.0     0.1    4788   233.0    2404    2.36    2.40  230.68    0.94    49.8    23.9    30.4    31.9    22.3    20.0    19.8    20.2    14.9   2033.     58.     48.     41.     47.     48.     47.     43.     40.     2.6     0.3     0.3     0.3     0.3     0.3     0.2     0.2     0.2    49.2    23.6    30.1    31.6    22.0    19.8    19.6    20.0    14.7     0.5     0.1     0.1     0.1     0.1     0.1     0.1     0.1     0.0
 2015 123    21    0.00    0.10    0.00     117    6.66    30.2   0.065   0.030   6.598   0.019     1.0    34.8     0.2    4747   100.3    2757    1.11    2.76   99.20    1.02    23.3     7.4    13.7    16.0    10.0     8.5     8.2     8.4     4.7   2330.     69.     59.     49.     53.     53.     52.     48.     43.     2.6     0.1     0.2     0.2     0.2     0.1     0.1     0.1     0.1    23.0     7.3    13.6    15.9     9.9     8.4     8.1     8.3     4.7     0.7     0.0     0.0     0.0     0.0     0.0     0.0     0.0     0.0
 2015 124    22    0.00    0.15    0.00     121    6.68    33.2   0.065   0.033   6.612   0.020     1.6    51.9     0.3    4689    13.8    3049    0.16    3.05   13.64    1.10     0.9     0.0     3.5     5.7     1.9     0.8     0.5     0.5     0.0   2392.    204.     64.     55.     56.     56.     55.     51.    116.     2.4     0.2     0.1     0.1     0.1     0.1     0.1     0.1     0.1     0.9     0.0     3.4     5.7     1.9     0.8     0.5     0.5     0.0     0.9     0.1     0.0     0.0     0.0     0.0     0.0     0.0     0.0
 2015 125    23    0.00    0.15    0.00     126    6.84    34.8   0.067   0.035   6.775   0.021     0.0     1.6     0.0    4478   165.2    1539    1.47    1.54  163.69    0.55   155.6     0.0     5.4     3.8     0.5     0.0     0.0     0.0     0.0    824.     45.     58.     53.     54.    139.    136.    127.    103.     2.2     0.0     0.1     0.1     0.1     0.1     0.1     0.1     0.1   154.2     0.0     5.3     3.7     0.5     0.0     0.0     0.0     0.0     0.3     0.0     0.0     0.0     0.0     0.0     0.0     0.0     0.0
 2015 126    24    0.00    0.16    0.00     131    7.02    36.9   0.068   0.037   6.953   0.022     0.1     4.9     0.0    5248   179.8    2081    1.72    2.08  178.08    0.71   140.8     0.0    27.2    10.1     1.7     0.0     0.0     0.0     0.0   1295.     39.     56.     61.     66.    156.    152.    141.    115.     2.6     0.0     0.3     0.2     0.1     0.2     0.2     0.1     0.1   139.5     0.0    26.9    10.0     1.7     0.0     0.0     0.0     0.0     0.4     0.0     0.1     0.0     0.0     0.0     0.0     0.0     0.0
 2015 127    25    0.00    0.16    0.00     136    7.35    38.4   0.071   0.038   7.281   0.022     0.1     3.1     0.0    4996   330.8    1484    2.86    1.48  327.95    0.68   128.3     0.0    65.8    65.2    71.5     0.0     0.0     0.0     0.0   1055.     36.     31.     27.     26.     33.     48.    125.    103.     2.2     0.0     0.6     0.6     0.6     0.0     0.0     0.1     0.1   127.2     0.0    65.3    64.6    70.9     0.0     0.0     0.0     0.0     0.3     0.0     0.1     0.1     0.1     0.0     0.0     0.0     0.0
 2015 128    26    0.01    0.18    0.00     141    7.61    40.2   0.074   0.040   7.538   0.023     0.4    14.5     0.1    5137   259.0    1896    2.39    1.90  256.61    0.74    85.6     0.0    51.4    57.9    64.2     0.0     0.0     0.0     0.0   1468.     42.     40.     31.     30.     32.     44.    113.     95.     2.3     0.0     0.5     0.5     0.6     0.0     0.0     0.1     0.1    84.7     0.0    50.9    57.4    63.6     0.0     0.0     0.0     0.0     0.4     0.0     0.1     0.1     0.1     0.0     0.0     0.0     0.0
 2015 129    27    0.01    0.21    0.00     146    7.79    42.5   0.075   0.043   7.710   0.024     1.0    38.0     0.2    5218   174.0    2269    1.78    2.27  172.23    0.89    46.6    28.0    27.8    33.5    38.2     0.0     0.0     0.0     0.0   1781.     59.     56.     45.     44.     42.     49.    104.     88.     2.3     0.3     0.3     0.4     0.4     0.0     0.0     0.1     0.1    46.0    27.7    27.5    33.2    37.8     0.0     0.0     0.0     0.0     0.5     0.1     0.1     0.1     0.1     0.0     0.0     0.0     0.0
 2015 130    28    0.01    0.28    0.00     152    7.86    44.9   0.076   0.045   7.785   0.025     1.8    64.1     0.4    5254    75.7    2426    0.83    2.43   74.90    0.94    14.7     8.6    12.2    18.1    22.1     0.0     0.0     0.0     0.0   1902.     68.     66.     55.     54.     49.     52.     97.     83.     2.1     0.2     0.2     0.2     0.3     0.0     0.1     0.1     0.1    14.6     8.5    12.1    17.9    21.9     0.0     0.0     0.0     0.0     0.7     0.0     0.1     0.1     0.1     0.0     0.0     0.0     0.0
 2015 131    29    0.01    0.35    0.00     157    7.89    49.3   0.076   0.049   7.810   0.027     2.3    75.5     0.5    5280    25.5    4354    0.28    4.35   25.21    1.60     0.0     0.0     1.1     7.0    10.6     6.9     0.0     0.0     0.0   3603.    198.     71.     62.     61.     53.    137.     90.     79.     3.6     0.2     0.1     0.1     0.2     0.1     0.1     0.1     0.1     0.0     0.0     1.1     6.9    10.5     6.8     0.0     0.0     0.0     1.3     0.1     0.0     0.0     0.0     0.0     0.0     0.0     0.0
 2015 132    30    0.01    0.35    0.00     162    8.09    50.2   0.078   0.050   8.011   0.027     0.0     1.6     0.0    4854   202.4     879    1.78    0.88  200.66    0.44     0.0     0.0    69.9    65.2    48.2    19.1     0.0     0.0     0.0    524.     25.     27.     25.     36.     45.     44.     80.     71.     0.5     0.0     0.6     0.6     0.5     0.2     0.0     0.1     0.1     0.0     0.0    69.3    64.7    47.8    18.9     0.0     0.0     0.0     0.1     0.0     0.1     0.1     0.1     0.1     0.0     0.0     0.0
 2015 133    31    0.01    0.37    0.00     167    8.21    51.3   0.079   0.051   8.129   0.027     0.4    12.0     0.1    4878   119.7    1152    1.15    1.15  118.54    0.43     0.0     0.0    40.8    39.2    29.1    10.6     0.0     0.0     0.0    773.     36.     39.     36.     43.     46.     43.     72.     64.     0.8     0.0     0.4     0.4     0.3     0.2     0.0     0.1     0.1     0.0     0.0    40.4    38.8    28.8    10.5     0.0     0.0     0.0     0.1     0.0     0.1     0.1     0.1     0.0     0.0     0.0     0.0
 2015 134    32    0.01    0.39    0.00     171    8.32    52.5   0.080   0.053   8.237   0.028     0.9    27.4     0.2    4701   108.6    1212    1.06    1.21  107.50    0.46     0.0     0.0    30.2    34.0    29.2    15.1     0.0     0.0     0.0    849.     37.     42.     37.     41.     42.     40.     65.     59.     0.8     0.0     0.3     0.4     0.3     0.2     0.0     0.1     0.1     0.0     0.0    29.9    33.7    28.9    15.0     0.0     0.0     0.0     0.2     0.0     0.1     0.1     0.1     0.0     0.0     0.0     0.0
 2015 135    33    0.01    0.40    0.00     176    8.48    53.3   0.082   0.053   8.395   0.028     0.1     2.9     0.0    4546   159.1     761    1.45    0.76  157.61    0.38     0.0     0.0    61.1    45.4    33.0    19.6     0.0     0.0     0.0    443.     25.     26.     30.     39.     40.     39.     62.     57.     0.4     0.0     0.6     0.4     0.4     0.2     0.0     0.1     0.1     0.0     0.0    60.5    45.0    32.7    19.4     0.0     0.0     0.0     0.1     0.0     0.1     0.1     0.1     0.0     0.0     0.0     0.0
 2015 136    34    0.01    0.40    0.00     180    8.96    53.9   0.086   0.054   8.871   0.029     0.1     4.0     0.0    4317   480.2     609    4.14    0.61  476.06    0.71    96.8    70.0    62.8    57.6    61.8    68.1    62.9     0.0     0.0    435.     25.     25.     23.     23.     19.     19.     19.     21.     1.3     0.6     0.6     0.5     0.5     0.6     0.6     0.0     0.0    95.9    69.4    62.3    57.1    61.3    67.6    62.4     0.0     0.0     0.2     0.1     0.1     0.1     0.1     0.1     0.1     0.0     0.0
 2015 137    35    0.01    0.42    0.00     185    9.25    54.8   0.089   0.055   9.162   0.030     0.6    19.3     0.1    4664   293.9     916    2.81    0.92  291.12    0.66    57.2    37.0    37.6    36.4    40.1    44.6    41.1     0.0     0.0    632.     36.     39.     36.     35.     30.     28.     22.     58.     1.2     0.4     0.4     0.4     0.4     0.4     0.4     0.0     0.1    56.6    36.6    37.2    36.0    39.8    44.2    40.7     0.0     0.0     0.2     0.1     0.1     0.1     0.1     0.1     0.1     0.0     0.0
 2015 138    36    0.01    0.47    0.00     190    9.40    55.9   0.090   0.056   9.310   0.030     1.5    49.4     0.3    4837   149.5    1121    1.56    1.12  147.97    0.62    22.5    11.0    17.4    20.0    24.6    28.3    25.7     0.0     0.0    772.     46.     51.     47.     46.     39.     36.     26.     59.     1.0     0.2     0.2     0.2     0.3     0.3     0.3     0.0     0.1    22.3    10.9    17.2    19.8    24.3    28.0    25.5     0.0     0.0     0.3     0.0     0.1     0.0     0.1     0.1     0.1     0.0     0.0
 2015 139    37    0.02    0.55    0.00     195    9.46    58.0   0.091   0.058   9.369   0.031     2.4    78.5     0.5    4962    60.1    2034    0.63    2.03   59.48    0.84     0.0     0.0     4.1     9.3    14.1    17.3    15.4     0.0     0.0   1558.    136.     57.     54.     54.     46.     42.     28.     59.     1.6     0.1     0.1     0.2     0.2     0.2     0.2     0.0     0.1     0.0     0.0     4.0     9.2    13.9    17.2    15.2     0.0     0.0     0.6     0.0     0.0     0.0     0.0     0.0     0.0     0.0     0.0
 2015 140    38    0.02    0.55    0.00     200    9.51    59.7   0.092   0.060   9.418   0.031     0.1     3.3     0.0    4965    49.7    1757    0.53    1.76   49.16    0.43     0.0     0.0     2.8     5.1    10.0    14.2    13.7     3.9     0.0   1374.     36.     57.     55.     56.     49.     43.     29.     58.     1.4     0.0     0.1     0.1     0.2     0.2     0.2     0.1     0.1     0.0     0.0     2.7     5.0     9.9    14.1    13.6     3.9     0.0     0.2     0.0     0.0     0.0     0.0     0.0     0.0     0.0     0.0
 2015 141    39    0.02    0.57    0.00     205    9.55    62.1   0.092   0.062   9.459   0.032     0.5    15.6     0.1    5074    40.8    2323    0.44    2.32   40.32    0.56     0.0     0.0     4.5     3.2     6.5    10.7    11.3     4.5     0.0   1932.     36.     57.     55.     58.     51.     45.     31.     58.     1.9     0.0     0.1     0.1     0.1     0.2     0.2     0.1     0.1     0.0     0.0     4.5     3.2     6.4    10.5    11.2     4.5     0.0     0.3     0.0     0.0     0.0     0.0     0.0     0.0     0.0     0.0
 2015 142    40    0.02    0.62    0.00     210    9.56    65.1   0.092   0.065   9.472   0.033     1.7    49.1     0.4    5178    14.0    3030    0.15    3.03   13.84    0.88     0.0     0.0     0.0     0.0     1.8     5.0     5.3     1.8     0.0   2438.     48.    140.    146.     62.     56.     49.     33.     58.     2.4     0.0     0.1     0.1     0.1     0.1     0.1     0.1     0.1     0.0     0.0     0.0     0.0     1.8     5.0     5.3     1.8     0.0     0.7     0.0     0.0     0.0     0.0     0.0     0.0     0.0     0.0
 2015 143    41    0.02    0.62    0.00     215    9.59    66.6   0.092   0.067   9.503   0.033     0.2     4.5     0.0    5040    30.4    1465    0.32    1.46   30.06    0.33     0.0     0.0     0.0     0.0    15.9     7.4     4.5     2.5     0.0   1144.     25.     24.     25.     52.     54.     50.     34.     57.     1.1     0.0     0.0     0.0     0.2     0.1     0.1     0.1     0.1     0.0     0.0     0.0     0.0    15.7     7.3     4.5     2.5     0.0     0.2     0.0     0.0     0.0     0.0     0.0     0.0     0.0     0.0
 2015 144    42    0.02    0.64    0.00     220    9.70    68.5   0.094   0.068   9.610   0.034     0.8    23.0     0.2    5155   108.2    1909    1.12    1.91  107.05    0.62    62.1    31.2     0.0     0.0     8.7     3.2     2.5     0.4     0.0   1545.     37.     39.     36.     55.     56.     50.     35.     55.     2.2     0.3     0.0     0.0     0.1     0.1     0.1     0.0     0.1    61.4    30.9     0.0     0.0     8.6     3.2     2.5     0.4     0.0     0.4     0.1     0.0     0.0     0.0     0.0     0.0     0.0     0.0
 2015 145    43    0.02    0.70    0.00     225    9.74    70.6   0.094   0.071   9.643   0.035     1.9    55.3     0.4    5169    33.7    2165    0.40    2.16   33.28    0.72    21.3     7.9     0.0     0.0     3.5     1.0     0.1     0.0     0.0   1707.     47.     52.     44.     58.     57.     52.     94.     55.     2.0     0.1     0.1     0.0     0.1     0.1     0.1     0.1     0.1    21.0     7.8     0.0     0.0     3.5     0.9     0.1     0.0     0.0     0.6     0.0     0.0     0.0     0.0     0.0     0.0     0.0     0.0
 2015 146    44    0.02    0.78    0.01     231    9.74    74.6   0.094   0.075   9.643   0.036     2.8    77.7     0.6    5265     0.6    4016    0.01    4.02    0.59    1.42     0.0     0.0     0.0     0.0     0.6     0.0     0.0     0.0     0.0   3261.    147.     63.     52.     60.    151.    137.     90.     55.     3.3     0.1     0.1     0.1     0.1     0.2     0.1     0.1     0.1     0.0     0.0     0.0     0.0     0.6     0.0     0.0     0.0     0.0     1.2     0.0     0.0     0.0     0.0     0.0     0.0     0.0     0.0
 2015 147    45    0.02    0.78    0.01     236    9.92    75.6   0.096   0.076   9.825   0.036     0.1     4.0     0.0    5193   183.1     932    1.58    0.93  181.53    0.40     0.0     0.0    57.1    58.8    67.1     0.0     0.0     0.0     0.0    598.     25.     31.     26.     26.     38.     46.     86.     56.     0.6     0.0     0.5     0.5     0.6     0.0     0.0     0.1     0.1     0.0     0.0    56.6    58.3    66.6     0.0     0.0     0.0     0.0     0.1     0.0     0.1     0.1     0.1     0.0     0.0     0.0     0.0
 2015 148    46    0.03    0.80    0.01     241   10.03    76.8   0.097   0.077   9.931   0.037     0.8    22.5     0.2    5446   107.3    1255    1.02    1.25  106.32    0.44     0.0     0.0    30.4    34.7    42.2     0.0     0.0     0.0     0.0    854.     41.     47.     39.     40.     46.     49.     82.     56.     0.9     0.0     0.4     0.4     0.4     0.0     0.0     0.1     0.1     0.0     0.0    30.1    34.3    41.8     0.0     0.0     0.0     0.0     0.2     0.0     0.1     0.1     0.1     0.0     0.0     0.0     0.0
 2015 149    47    0.03    0.85    0.01     247   10.08    78.2   0.097   0.078   9.988   0.037     1.9    51.1     0.4    5435    56.8    1354    0.58    1.35   56.23    0.49     0.0     0.0    12.8    18.5    25.5     0.0     0.0     0.0     0.0    915.     51.     58.     48.     49.     50.     50.     77.     55.     0.9     0.1     0.2     0.2     0.3     0.1     0.1     0.1     0.1     0.0     0.0    12.7    18.3    25.2     0.0     0.0     0.0     0.0     0.3     0.0     0.0     0.0     0.1     0.0     0.0     0.0     0.0
 2015 150    48    0.03    0.93    0.01     252   10.11    80.5   0.097   0.080  10.011   0.038     2.8    74.0     0.7    5340    23.7    2294    0.25    2.29   23.49    0.85     0.0     0.0     1.7     7.9    14.2     0.0     0.0     0.0     0.0   1666.    153.     64.     52.     54.     52.    128.     71.     54.     1.7     0.2     0.1     0.1     0.2     0.1     0.1     0.1     0.1     0.0     0.0     1.7     7.8    14.0     0.0     0.0     0.0     0.0     0.6     0.0     0.0     0.0     0.0     0.0     0.0     0.0     0.0
 2015 151    49    0.03    1.00    0.01     257   10.12    82.5   0.097   0.082  10.019   0.039     2.7    72.1     0.6    5299     8.1    2013    0.09    2.01    8.05    0.70     0.0     0.0     0.0     0.0     6.1     2.1     0.0     0.0     0.0   1237.    137.    148.    146.     58.     53.    114.     67.     53.     1.2     0.1     0.1     0.1     0.1     0.1     0.1     0.1     0.1     0.0     0.0     0.0     0.0     6.0     2.0     0.0     0.0     0.0     0.5     0.0     0.0     0.0     0.0     0.0     0.0     0.0     0.0
 2015 152    50    0.04    1.07    0.01     263   10.12    84.3   0.097   0.084  10.020   0.039     2.7    70.4     0.6    5338     0.7    1793    0.01    1.79    0.68    0.60     0.0     0.0     0.0     0.0     0.7     0.0     0.0     0.0     0.0    969.    128.    136.    133.     61.    142.    105.     65.     53.     1.0     0.1     0.1     0.1     0.1     0.1     0.1     0.1     0.1     0.0     0.0     0.0     0.0     0.7     0.0     0.0     0.0     0.0     0.4     0.0     0.0     0.0     0.0     0.0     0.0     0.0     0.0
 2015 153    51    0.04    1.07    0.01     268   10.12    85.1   0.097   0.085  10.020   0.040     0.1     2.2     0.0    5227     0.0     842    0.00    0.84    0.00    0.22     0.0     0.0     0.0     0.0     0.0     0.0     0.0     0.0     0.0    157.     20.     50.    121.    154.    127.     97.     63.     53.     0.2     0.0     0.1     0.1     0.2     0.1     0.1     0.1     0.1     0.0     0.0     0.0     0.0     0.0     0.0     0.0     0.0     0.0     0.0     0.0     0.0     0.0     0.0     0.0     0.0     0.0     0.0
 2015 154    52    0.04    1.09    0.01     273   10.12    86.1   0.097   0.086  10.020   0.040     0.7    19.3     0.2    5410     0.0     924    0.00    0.92    0.00    0.24     0.0     0.0     0.0     0.0     0.0     0.0     0.0     0.0     0.0    253.     35.     57.    113.    141.    118.     91.     62.     53.     0.3     0.0     0.1     0.1     0.1     0.1     0.1     0.1     0.1     0.0     0.0     0.0     0.0     0.0     0.0     0.0     0.0     0.0     0.0     0.0     0.0     0.0     0.0     0.0     0.0     0.0     0.0
 2015 155    53    0.04    1.14    0.01     279   10.12    87.1   0.097   0.087  10.020   0.040     1.9    50.5     0.4    5469     0.0    1014    0.00    1.01    0.00    0.30     0.0     0.0     0.0     0.0     0.0     0.0     0.0     0.0     0.0    286.     46.    135.    106.    129.    109.     87.     62.     54.     0.3     0.0     0.1     0.1     0.1     0.1     0.1     0.1     0.1     0.0     0.0     0.0     0.0     0.0     0.0     0.0     0.0     0.0     0.1     0.0     0.0     0.0     0.0     0.0     0.0     0.0     0.0
 2015 156    54    0.04    1.21    0.01     284   10.12    88.3   0.097   0.088  10.020   0.041     2.5    67.9     0.6    5438     0.0    1277    0.00    1.28    0.00    0.41     0.0     0.0     0.0     0.0     0.0     0.0     0.0     0.0     0.0    510.    140.    123.     97.    115.     99.     80.     60.     53.     0.5     0.1     0.1     0.1     0.1     0.1     0.1     0.1     0.1     0.0     0.0     0.0     0.0     0.0     0.0     0.0     0.0     0.0     0.2     0.0     0.0     0.0     0.0     0.0     0.0     0.0     0.0
 2015 157    55    0.04    1.21    0.01     289   10.12    88.9   0.097   0.089  10.020   0.041     0.1     2.9     0.0    5230     0.0     534    0.00    0.53    0.00    0.14     0.0     0.0     0.0     0.0     0.0     0.0     0.0     0.0     0.0     86.     22.     24.     31.    102.     88.     73.     57.     51.     0.1     0.0     0.0     0.0     0.1     0.1     0.1     0.1     0.1     0.0     0.0     0.0     0.0     0.0     0.0     0.0     0.0     0.0     0.0     0.0     0.0     0.0     0.0     0.0     0.0     0.0     0.0
 2015 158    56    0.04    1.23    0.01     295   10.12    89.5   0.097   0.089  10.020   0.041     0.7    19.1     0.2    5287     0.0     580    0.00    0.58    0.00    0.15     0.0     0.0     0.0     0.0     0.0     0.0     0.0     0.0     0.0    125.     36.     37.     34.     92.     82.     69.     55.     51.     0.1     0.0     0.0     0.0     0.1     0.1     0.1     0.1     0.1     0.0     0.0     0.0     0.0     0.0     0.0     0.0     0.0     0.0     0.0     0.0     0.0     0.0     0.0     0.0     0.0     0.0     0.0
 2015 159    57    0.04    1.28    0.01     300   10.12    90.1   0.097   0.090  10.020   0.041     1.7    46.4     0.4    5235     0.0     646    0.00    0.65    0.00    0.18     0.0     0.0     0.0     0.0     0.0     0.0     0.0     0.0     0.0    133.     44.     46.     93.     85.     76.     65.     54.     50.     0.1     0.0     0.0     0.1     0.1     0.1     0.1     0.1     0.1     0.0     0.0     0.0     0.0     0.0     0.0     0.0     0.0     0.0     0.0     0.0     0.0     0.0     0.0     0.0     0.0     0.0     0.0
 2015 160    58    0.05    1.35    0.01     305   10.12    91.0   0.097   0.091  10.020   0.041     2.4    65.9     0.6    5230     0.0     905    0.00    0.90    0.00    0.28     0.0     0.0     0.0     0.0     0.0     0.0     0.0     0.0     0.0    243.    137.    121.     87.     80.     72.     63.     53.     50.     0.2     0.1     0.1     0.1     0.1     0.1     0.1     0.1     0.1     0.0     0.0     0.0     0.0     0.0     0.0     0.0     0.0     0.0     0.1     0.0     0.0     0.0     0.0     0.0     0.0     0.0     0.0
 2015 161    59    0.05    1.35    0.01     310   10.12    91.3   0.097   0.091  10.020   0.041     0.1     3.0     0.0    5115     0.0     317    0.00    0.32    0.00    0.08     0.0     0.0     0.0     0.0     0.0     0.0     0.0     0.0     0.0     44.     23.     23.     14.     22.     26.     62.     53.     50.     0.0     0.0     0.0     0.0     0.0     0.0     0.1     0.1     0.1     0.0     0.0     0.0     0.0     0.0     0.0     0.0     0.0     0.0     0.0     0.0     0.0     0.0     0.0     0.0     0.0     0.0     0.0
 2015 162    60    0.05    1.36    0.01     315   10.12    91.7   0.097   0.092  10.020   0.042     0.6    15.5     0.1    5239     0.0     369    0.00    0.37    0.00    0.09     0.0     0.0     0.0     0.0     0.0     0.0     0.0     0.0     0.0     61.     34.     35.     22.     27.     28.     59.     52.     50.     0.1     0.0     0.0     0.0     0.0     0.0     0.1     0.1     0.1     0.0     0.0     0.0     0.0     0.0     0.0     0.0     0.0     0.0     0.0     0.0     0.0     0.0     0.0     0.0     0.0     0.0     0.0
 2015 163    61    0.05    1.40    0.01     321   10.12    92.2   0.097   0.092  10.020   0.042     1.4    39.1     0.3    5255     0.0     457    0.00    0.46    0.00    0.12     0.0     0.0     0.0     0.0     0.0     0.0     0.0     0.0     0.0     69.     45.     46.     29.     31.     76.     58.     52.     50.     0.1     0.0     0.0     0.0     0.0     0.1     0.1     0.1     0.1     0.0     0.0     0.0     0.0     0.0     0.0     0.0     0.0     0.0     0.0     0.0     0.0     0.0     0.0     0.0     0.0     0.0     0.0
 2015 164    62    0.05    1.41    0.01     326   10.12    92.4   0.097   0.092  10.020   0.042     0.1     2.9     0.0    5056     0.0     253    0.00    0.25    0.00    0.06     0.0     0.0     0.0     0.0     0.0     0.0     0.0     0.0     0.0     32.     24.     25.     16.     14.     19.     21.     52.     50.     0.0     0.0     0.0     0.0     0.0     0.0     0.0     0.1     0.1     0.0     0.0     0.0     0.0     0.0     0.0     0.0     0.0     0.0     0.0     0.0     0.0     0.0     0.0     0.0     0.0     0.0     0.0
 2015 165    63    0.05    1.42    0.01     331   10.25    92.7   0.099   0.093  10.147   0.042     0.6    17.6     0.1    5272   128.3     327    1.24    0.33  127.06    0.29    18.7    18.0    24.2    29.1    38.3     0.0     0.0     0.0     0.0     49.     39.     40.     26.     23.     24.     24.     52.     50.     0.2     0.2     0.3     0.3     0.4     0.0     0.0     0.1     0.1    18.5    17.8    24.0    28.8    37.9     0.0     0.0     0.0     0.0     0.0     0.0     0.1     0.1     0.1     0.0     0.0     0.0     0.0
 2015 166    64    0.05    1.46    0.01     336   10.31    93.2   0.099   0.093  10.207   0.042     1.4    40.6     0.3    5290    60.6     419    0.64    0.42   59.93    0.25     7.4     5.5    10.7    15.1    21.9     0.0     0.0     0.0     0.0     58.     48.     51.     34.     30.     29.     66.     52.     51.     0.1     0.1     0.2     0.2     0.2     0.0     0.1     0.1     0.1     7.3     5.5    10.6    14.9    21.7     0.0     0.0     0.0     0.0     0.0     0.0     0.0     0.0     0.0     0.0     0.0     0.0     0.0
 2015 167    65    0.05    1.53    0.01     342   10.33    93.7   0.100   0.094  10.226   0.042     2.1    64.3     0.5    5362    19.9     555    0.22    0.56   19.71    0.21     0.1     0.0     2.6     6.2    11.1     0.0     0.0     0.0     0.0     62.    153.     61.     41.     36.     33.     65.     53.     52.     0.1     0.2     0.1     0.1     0.2     0.0     0.1     0.1     0.1     0.1     0.0     2.6     6.1    10.9     0.0     0.0     0.0     0.0     0.0     0.0     0.0     0.0     0.0     0.0     0.0     0.0     0.0
 2015 168    66    0.05    1.53    0.01     347   10.38    94.1   0.100   0.094  10.279   0.043     0.1     2.3     0.0    5313    53.5     391    0.52    0.39   52.99    0.20    32.8     0.0     6.6     4.5     6.9     2.7     0.0     0.0     0.0     23.     26.     58.     43.     39.     34.     63.     53.     52.     0.3     0.0     0.1     0.1     0.1     0.1     0.1     0.1     0.1    32.5     0.0     6.5     4.4     6.9     2.6     0.0     0.0     0.0     0.0     0.0     0.0     0.0     0.0     0.0     0.0     0.0     0.0
 2015 169    67    0.05    1.54    0.01     352   10.40    94.6   0.100   0.095  10.303   0.043     0.4    13.6     0.1    5411    23.8     484    0.25    0.48   23.57    0.18    20.0     0.0     1.9     0.3     1.6     0.0     0.0     0.0     0.0     34.     39.     63.     46.     42.     94.     62.     53.     52.     0.2     0.0     0.1     0.0     0.1     0.1     0.1     0.1     0.1    19.8     0.0     1.9     0.3     1.6     0.0     0.0     0.0     0.0     0.0     0.0     0.0     0.0     0.0     0.0     0.0     0.0     0.0
 2015 170    68    0.05    1.58    0.01     358   10.41    95.3   0.100   0.095  10.314   0.043     1.0    32.1     0.2    5391    10.8     721    0.13    0.72   10.72    0.24    10.8     0.0     0.0     0.0     0.0     0.0     0.0     0.0     0.0     40.     48.    148.    121.    113.     87.     60.     53.     52.     0.2     0.0     0.1     0.1     0.1     0.1     0.1     0.1     0.1    10.7     0.0     0.0     0.0     0.0     0.0     0.0     0.0     0.0     0.0     0.0     0.0     0.0     0.0     0.0     0.0     0.0     0.0
 2015 171    69    0.05    1.63    0.01     363   10.42    96.0   0.101   0.096  10.318   0.043     1.6    51.4     0.4    5336     4.5     678    0.06    0.68    4.45    0.22     4.5     0.0     0.0     0.0     0.0     0.0     0.0     0.0     0.0     41.     53.    133.    109.    102.     80.     58.     52.     51.     0.1     0.1     0.1     0.1     0.1     0.1     0.1     0.1     0.1     4.4     0.0     0.0     0.0     0.0     0.0     0.0     0.0     0.0     0.0     0.0     0.0     0.0     0.0     0.0     0.0     0.0     0.0
 2015 172    70    0.06    1.69    0.01     368   10.42    96.7   0.101   0.097  10.319   0.044     2.0    65.0     0.5    5209     0.6     717    0.01    0.72    0.56    0.21     0.6     0.0     0.0     0.0     0.0     0.0     0.0     0.0     0.0     37.    149.    117.     96.     91.     73.     55.     50.     49.     0.0     0.1     0.1     0.1     0.1     0.1     0.1     0.0     0.0     0.6     0.0     0.0     0.0     0.0     0.0     0.0     0.0     0.0     0.0     0.0     0.0     0.0     0.0     0.0     0.0     0.0     0.0

*DSSAT Cropping System Model Ver. 4.7.5.007 -  MAR 01, 2026 21:01:02
!              |---------------------------------- Cumulative ---------------------------------|---------------------------------- Daily --------------------------------------|
!               N2Oemit  N2emit  NOemit     CO2   Denit  Nitrif   N2O-denit+nit      N2      NO N2Oemit  N2emit  NOemit     CO2   Denit  Nitrif   N2O-denit+nit      N2      NO   Denitrification (g[N]/ha) by soil depth (cm):                           Nitrification (g[N]/ha) by soil depth (cm):                             N2O flux (g[N]/ha) by soil depth (cm):                                  N2 flux (g[N]/ha) by soil depth (cm):                                   NO flux (g[N]/ha) by soil depth (cm):
!                 kg/ha   kg/ha   kg/ha   kg/ha   kg/ha   kg/ha   kg/ha   kg/ha   kg/ha   kg/ha    g/ha    g/ha    g/ha    g/ha    g/ha    g/ha    g/ha    g/ha    g/ha    g/ha    0-10   10-20   20-30   30-40   40-50   50-60   60-70   70-80   80-90    0-10   10-20   20-30   30-40   40-50   50-60   60-70   70-80   80-90    0-10   10-20   20-30   30-40   40-50   50-60   60-70   70-80   80-90    0-10   10-20   20-30   30-40   40-50   50-60   60-70   70-80   80-90    0-10   10-20   20-30   30-40   40-50   50-60   60-70   70-80   80-90
@YEAR DOY   DAS   N2OEC    N2EC    NOEC   CO2TC    NDNC    NITC   N2ODC   N2ONC   N2FLC   NOFLC   N2OED    N2ED    NOED   CO2TD    NDND   NITRD   N2ODD   N2OND   N2FLD   NOFLD   NDN1D   NDN2D   NDN3D   NDN4D   NDN5D   NDN6D   NDN7D   NDN8D   NDN9D   NIT1D   NIT2D   NIT3D   NIT4D   NIT5D   NIT6D   NIT7D   NIT8D   NIT9D   N2O1D   N2O2D   N2O3D   N2O4D   N2O5D   N2O6D   N2O7D   N2O8D   N2O9D   N2F1D   N2F2D   N2F3D   N2F4D   N2F5D   N2F6D   N2F7D   N2F8D   N2F9D   NOF1D   NOF2D   NOF3D   NOF4D   NOF5D   NOF6D   NOF7D   NOF8D   NOF9D   
 2015 126     1    0.00    0.00    0.00       6    0.00     1.8   0.000   0.002   0.000   0.002     0.0     0.0     0.0    5885     0.0    1774    0.00    1.77    0.00    2.00     0.0     0.0     0.0     0.0     0.0     0.0     0.0     0.0     0.0    195.    207.    202.    198.    197.    195.    194.    193.    192.     0.2     0.2     0.2     0.2     0.2     0.2     0.2     0.2     0.2     0.0     0.0     0.0     0.0     0.0     0.0     0.0     0.0     0.0     0.3     0.2     0.2     0.2     0.2     0.2     0.2     0.2     0.2
 2015 127     2    0.00    0.00    0.00      11    0.00     2.4   0.000   0.003   0.000   0.003     0.0     0.0     0.0    5230     0.0     578    0.00    0.58    0.00    0.36     0.0     0.0     0.0     0.0     0.0     0.0     0.0     0.0     0.0    169.     27.     30.     27.     27.     27.     50.     60.    161.     0.2     0.0     0.0     0.0     0.0     0.0     0.1     0.1     0.2     0.0     0.0     0.0     0.0     0.0     0.0     0.0     0.0     0.0     0.1     0.0     0.0     0.0     0.0     0.0     0.0     0.0     0.1
 2015 128     3    0.00    0.00    0.00      17    0.00     3.4   0.000   0.004   0.000   0.003     0.0     0.0     0.0    5425     0.0    1092    0.00    1.09    0.00    0.45     0.0     0.0     0.0     0.0     0.0     0.0     0.0     0.0     0.0    788.     31.     34.     29.     29.     29.     44.     55.     53.     0.8     0.0     0.0     0.0     0.0     0.0     0.0     0.1     0.1     0.0     0.0     0.0     0.0     0.0     0.0     0.0     0.0     0.0     0.3     0.0     0.0     0.0     0.0     0.0     0.0     0.0     0.0
 2015 129     4    0.00    0.00    0.00      22    0.00     5.0   0.000   0.006   0.000   0.004     0.0     0.0     0.0    5542     0.0    1576    0.00    1.58    0.00    0.64     0.0     0.0     0.0     0.0     0.0     0.0     0.0     0.0     0.0   1103.     49.     49.     42.     43.     42.     52.     58.    137.     1.1     0.0     0.0     0.0     0.0     0.0     0.1     0.1     0.1     0.0     0.0     0.0     0.0     0.0     0.0     0.0     0.0     0.0     0.4     0.0     0.0     0.0     0.0     0.0     0.0     0.0     0.1
 2015 130     5    0.00    0.00    0.00      27    0.00     6.8   0.000   0.008   0.000   0.004     0.1     0.0     0.0    5395     0.0    1802    0.00    1.80    0.00    0.72     0.0     0.0     0.0     0.0     0.0     0.0     0.0     0.0     0.0   1211.     61.     59.     50.     50.     50.     55.    147.    119.     1.2     0.1     0.1     0.1     0.1     0.1     0.1     0.1     0.1     0.0     0.0     0.0     0.0     0.0     0.0     0.0     0.0     0.0     0.5     0.0     0.0     0.0     0.0     0.0     0.0     0.1     0.1
 2015 131     6    0.00    0.00    0.00      33    0.44     7.8   0.006   0.008   0.431   0.005     0.0     0.1     0.0    5059   436.5     956    5.59    0.96  430.89    1.09    83.8    66.8    74.6    72.6    73.6    50.3    14.8     0.0     0.0    518.     33.     30.     27.     26.     36.     50.    129.    106.     1.6     0.8     1.0     0.9     0.9     0.7     0.3     0.1     0.1    82.8    66.0    73.7    71.7    72.7    49.6    14.5     0.0     0.0     0.3     0.1     0.1     0.1     0.1     0.1     0.1     0.0     0.0
 2015 132     7    0.00    0.00    0.00      37    0.93     8.4   0.010   0.009   0.915   0.006     0.0     0.2     0.0    4645   489.0     659    4.87    0.66  484.10    0.82    63.6    59.4    69.1    71.2    74.6    75.4    75.7     0.0     0.0    478.     30.     28.     23.     23.     23.     22.     17.     14.     1.1     0.6     0.7     0.7     0.8     0.8     0.8     0.0     0.0    62.9    58.8    68.4    70.5    73.8    74.7    74.9     0.0     0.0     0.2     0.1     0.1     0.1     0.1     0.1     0.1     0.0     0.0
 2015 133     8    0.00    0.00    0.00      42    1.22     9.4   0.013   0.010   1.206   0.007     0.1     1.5     0.0    4894   293.5     938    2.74    0.94  290.77    0.61    41.6    34.5    40.9    42.0    44.2    45.0    45.3     0.0     0.0    672.     43.     41.     34.     34.     34.     32.     26.     22.     1.1     0.4     0.4     0.4     0.4     0.4     0.4     0.0     0.0    41.2    34.2    40.5    41.6    43.8    44.6    44.8     0.0     0.0     0.2     0.1     0.1     0.1     0.1     0.1     0.1     0.0     0.0
 2015 134     9    0.00    0.01    0.00      47    1.46    10.4   0.016   0.011   1.448   0.008     0.1     3.5     0.0    4718   244.9    1016    2.36    1.02  242.51    0.61    30.7    29.9    32.3    36.5    38.0    38.6    38.8     0.0     0.0    739.     44.     44.     35.     35.     35.     33.     27.     23.     1.1     0.3     0.4     0.4     0.4     0.4     0.4     0.0     0.0    30.3    29.6    32.0    36.2    37.7    38.2    38.5     0.0     0.0     0.2     0.1     0.1     0.1     0.1     0.1     0.1     0.0     0.0
 2015 135    10    0.00    0.01    0.00      51    1.60    11.6   0.017   0.012   1.580   0.008     0.3     6.7     0.1    4697   133.1    1163    1.39    1.16  131.66    0.58    18.9    15.1    17.5    19.6    20.4    20.7    20.9     0.0     0.0    821.     54.     53.     44.     44.     43.     41.     34.     29.     1.0     0.2     0.2     0.2     0.3     0.3     0.3     0.0     0.0    18.6    14.9    17.3    19.4    20.2    20.5    20.7     0.0     0.0     0.3     0.0     0.1     0.0     0.1     0.1     0.1     0.0     0.0
 2015 136    11    0.00    0.01    0.00      56    1.99    12.1   0.021   0.013   1.974   0.009     0.0     0.4     0.0    4358   397.9     572    3.57    0.57  394.36    0.66    65.1    49.5    56.4    59.0    63.0    44.8    24.2    18.7    17.2    338.     28.     26.     23.     23.     31.     39.     34.     30.     0.9     0.4     0.5     0.5     0.6     0.4     0.3     0.2     0.3    64.5    49.1    55.9    58.5    62.5    44.4    23.9    18.5    17.0     0.1     0.1     0.1     0.1     0.1     0.1     0.1     0.0     0.1
 2015 137    12    0.00    0.02    0.00      61    2.24    13.0   0.023   0.014   2.214   0.009     0.1     2.8     0.0    4693   242.1     852    2.35    0.85  239.72    0.58    45.3    30.1    35.0    36.3    38.8    26.8    12.9     9.0     7.9    536.     43.     41.     36.     35.     41.     45.     39.     35.     1.0     0.3     0.4     0.4     0.4     0.3     0.2     0.1     0.1    44.9    29.8    34.7    35.9    38.4    26.5    12.8     8.9     7.8     0.2     0.1     0.1     0.1     0.1     0.1     0.0     0.0     0.0
 2015 138    13    0.00    0.02    0.00      65    2.36    14.1   0.024   0.015   2.337   0.010     0.2     7.4     0.1    4874   124.5    1091    1.31    1.09  123.21    0.52    29.2    15.2    19.8    20.3    21.7    13.4     3.8     1.0     0.1    699.     57.     55.     47.     47.     50.     52.     45.     40.     1.0     0.2     0.3     0.3     0.3     0.2     0.1     0.1     0.0    28.9    15.1    19.6    20.1    21.5    13.3     3.8     1.0     0.1     0.2     0.0     0.1     0.1     0.1     0.0     0.0     0.0     0.0
 2015 139    14    0.00    0.04    0.00      70    2.41    15.5   0.025   0.016   2.390   0.010     0.4    13.0     0.1    5003    53.3    1466    0.60    1.47   52.66    0.56    16.0     4.9     9.3     9.2     9.8     4.0     0.0     0.0     0.0    796.     67.     65.     55.     55.     57.    143.    121.    107.     1.0     0.1     0.2     0.2     0.2     0.1     0.1     0.1     0.1    15.8     4.8     9.2     9.1     9.7     4.0     0.0     0.0     0.0     0.3     0.0     0.0     0.0     0.0     0.0     0.0     0.0     0.0
 2015 140    15    0.00    0.04    0.00      75    2.59    17.6   0.026   0.018   2.565   0.011     0.0     0.7     0.0    4946   176.8    2041    1.60    2.04  175.23    0.65    89.6    56.0    15.8     8.6     5.9     0.9     0.0     0.0     0.0   1430.     33.     61.     56.     58.     59.    132.    112.    100.     2.2     0.5     0.2     0.1     0.1     0.1     0.1     0.1     0.1    88.9    55.5    15.6     8.5     5.9     0.9     0.0     0.0     0.0     0.3     0.1     0.1     0.0     0.0     0.0     0.0     0.0     0.0
 2015 141    16    0.00    0.04    0.00      80    2.75    20.3   0.028   0.021   2.725   0.012     0.1     3.2     0.0    5093   161.5    2693    1.54    2.69  159.95    0.78    77.0    51.8    19.7     9.5     3.4     0.0     0.0     0.0     0.0   2008.     38.     58.     56.     59.    154.    121.    105.     94.     2.8     0.5     0.3     0.2     0.1     0.2     0.1     0.1     0.1    76.3    51.3    19.5     9.4     3.4     0.0     0.0     0.0     0.0     0.4     0.1     0.1     0.0     0.0     0.0     0.0     0.0     0.0
 2015 142    17    0.00    0.05    0.00      86    2.84    23.8   0.029   0.024   2.814   0.013     0.4    10.7     0.1    5230    90.0    3491    0.96    3.49   89.07    0.99    52.9    27.0     8.6     1.5     0.0     0.0     0.0     0.0     0.0   2695.     58.     68.     62.    162.    143.    114.     99.     90.     3.3     0.3     0.2     0.1     0.2     0.1     0.1     0.1     0.1    52.3    26.8     8.5     1.5     0.0     0.0     0.0     0.0     0.0     0.7     0.1     0.0     0.0     0.0     0.0     0.0     0.0     0.0
 2015 143    18    0.00    0.05    0.00      91    3.15    25.6   0.032   0.026   3.120   0.014     0.0     1.1     0.0    5002   308.6    1799    2.66    1.80  305.95    0.71   119.1    62.0    62.7    64.8     0.0     0.0     0.0     0.0     0.0   1351.     36.     31.     28.     28.     46.    104.     91.     84.     2.4     0.6     0.6     0.6     0.0     0.0     0.1     0.1     0.1   118.1    61.5    62.1    64.2     0.0     0.0     0.0     0.0     0.0     0.4     0.1     0.1     0.1     0.0     0.0     0.0     0.0     0.0
 2015 144    19    0.00    0.06    0.00      96    3.34    28.1   0.033   0.029   3.308   0.014     0.2     7.5     0.1    5203   190.1    2532    1.86    2.53  188.24    0.80    81.0    34.4    36.8    37.9     0.0     0.0     0.0     0.0     0.0   2040.     55.     48.     41.     40.     49.     95.     85.     78.     2.9     0.4     0.4     0.4     0.0     0.0     0.1     0.1     0.1    80.2    34.1    36.5    37.5     0.0     0.0     0.0     0.0     0.0     0.5     0.1     0.1     0.1     0.0     0.0     0.0     0.0     0.0
 2015 145    20    0.00    0.08    0.00     101    3.44    31.2   0.034   0.032   3.407   0.015     0.7    20.2     0.1    5239   100.1    3120    1.10    3.12   99.03    0.99    47.6    13.9    18.6    20.1     0.0     0.0     0.0     0.0     0.0   2514.     69.     62.     52.     49.    130.     89.     80.     75.     3.1     0.2     0.3     0.3     0.0     0.1     0.1     0.1     0.1    47.0    13.7    18.4    19.9     0.0     0.0     0.0     0.0     0.0     0.7     0.0     0.1     0.1     0.0     0.0     0.0     0.0     0.0
 2015 146    21    0.00    0.11    0.00     106    3.47    34.6   0.035   0.035   3.439   0.017     1.3    35.2     0.3    5344    32.0    3439    0.39    3.44   31.63    1.18    16.5     0.4     6.7     8.4     0.0     0.0     0.0     0.0     0.0   2814.     79.     72.     61.     56.    121.     86.     78.     73.     3.0     0.1     0.1     0.2     0.1     0.1     0.1     0.1     0.1    16.3     0.4     6.6     8.3     0.0     0.0     0.0     0.0     0.0     1.0     0.0     0.0     0.0     0.0     0.0     0.0     0.0     0.0
 2015 147    22    0.01    0.16    0.00     112    3.47    41.2   0.035   0.042   3.439   0.019     1.8    42.0     0.4    5433     0.1    6574    0.00    6.57    0.15    2.35     0.0     0.0     0.0     0.1     0.0     0.0     0.0     0.0     0.0   5605.    227.    177.     67.    157.    113.     82.     75.     71.     5.6     0.2     0.2     0.1     0.2     0.1     0.1     0.1     0.1     0.0     0.0     0.0     0.1     0.0     0.0     0.0     0.0     0.0     2.1     0.1     0.1     0.0     0.0     0.0     0.0     0.0     0.0
 2015 148    23    0.01    0.16    0.00     117    3.48    42.8   0.035   0.044   3.445   0.019     0.1     1.4     0.0    5405     5.6    1597    0.06    1.60    5.55    0.33     0.0     0.0     0.0     5.6     0.0     0.0     0.0     0.0     0.0    975.     34.     53.     64.    144.    106.     79.     73.     69.     1.0     0.0     0.1     0.1     0.1     0.1     0.1     0.1     0.1     0.0     0.0     0.0     5.5     0.0     0.0     0.0     0.0     0.0     0.1     0.0     0.0     0.0     0.0     0.0     0.0     0.0     0.0
 2015 149    24    0.01    0.17    0.00     123    3.48    45.0   0.035   0.046   3.445   0.020     0.4     8.4     0.1    5519     0.0    2197    0.00    2.20    0.00    0.47     0.0     0.0     0.0     0.0     0.0     0.0     0.0     0.0     0.0   1478.     52.     62.    170.    129.     97.     75.     70.     66.     1.5     0.1     0.1     0.2     0.1     0.1     0.1     0.1     0.1     0.0     0.0     0.0     0.0     0.0     0.0     0.0     0.0     0.0     0.3     0.0     0.0     0.0     0.0     0.0     0.0     0.0     0.0
 2015 150    25    0.01    0.17    0.00     128    3.48    46.4   0.035   0.047   3.445   0.020     0.1     1.5     0.0    5311     0.0    1387    0.00    1.39    0.00    0.27     0.0     0.0     0.0     0.0     0.0     0.0     0.0     0.0     0.0    864.     34.     40.     51.    113.     87.     69.     65.     62.     0.9     0.0     0.0     0.1     0.1     0.1     0.1     0.1     0.1     0.0     0.0     0.0     0.0     0.0     0.0     0.0     0.0     0.0     0.1     0.0     0.0     0.0     0.0     0.0     0.0     0.0     0.0
 2015 151    26    0.01    0.18    0.00     134    3.48    48.2   0.035   0.049   3.445   0.020     0.5     9.6     0.1    5380     0.0    1842    0.00    1.84    0.00    0.39     0.0     0.0     0.0     0.0     0.0     0.0     0.0     0.0     0.0   1312.     52.     52.     55.    102.     81.     66.     62.     60.     1.3     0.1     0.1     0.1     0.1     0.1     0.1     0.1     0.1     0.0     0.0     0.0     0.0     0.0     0.0     0.0     0.0     0.0     0.2     0.0     0.0     0.0     0.0     0.0     0.0     0.0     0.0
 2015 152    27    0.01    0.20    0.00     139    3.56    50.5   0.036   0.051   3.524   0.021     1.2    25.4     0.3    5421    80.7    2216    0.95    2.22   79.78    0.83    58.4    13.0     9.3     0.0     0.0     0.0     0.0     0.0     0.0   1588.     64.     62.    146.     95.     77.     64.     61.     59.     2.3     0.2     0.2     0.1     0.1     0.1     0.1     0.1     0.1    57.7    12.8     9.2     0.0     0.0     0.0     0.0     0.0     0.0     0.6     0.0     0.0     0.0     0.0     0.0     0.0     0.0     0.0
 2015 153    28    0.01    0.20    0.00     144    3.88    51.8   0.039   0.052   3.836   0.022     0.1     2.3     0.0    5350   314.8    1304    2.85    1.30  311.90    0.72   240.3    63.1    11.4     0.0     0.0     0.0     0.0     0.0     0.0    729.     45.     59.    131.     88.     73.     62.     59.     58.     2.9     0.6     0.2     0.1     0.1     0.1     0.1     0.1     0.1   238.2    62.5    11.2     0.0     0.0     0.0     0.0     0.0     0.0     0.4     0.1     0.0     0.0     0.0     0.0     0.0     0.0     0.0
 2015 154    29    0.01    0.22    0.00     150    4.03    53.5   0.040   0.054   3.993   0.023     0.6    16.2     0.1    5482   157.8    1717    1.66    1.72  156.15    0.71   133.1    23.4     1.3     0.0     0.0     0.0     0.0     0.0     0.0   1137.     59.     66.    121.     84.     71.     62.     59.     58.     2.5     0.3     0.1     0.1     0.1     0.1     0.1     0.1     0.1   131.7    23.2     1.3     0.0     0.0     0.0     0.0     0.0     0.0     0.5     0.1     0.0     0.0     0.0     0.0     0.0     0.0     0.0
 2015 155    30    0.01    0.26    0.00     155    4.09    55.5   0.041   0.056   4.047   0.023     1.5    40.8     0.3    5546    55.0    2020    0.67    2.02   54.31    0.74    54.0     1.0     0.0     0.0     0.0     0.0     0.0     0.0     0.0   1360.     67.    154.    112.     80.     69.     61.     59.     58.     2.0     0.1     0.2     0.1     0.1     0.1     0.1     0.1     0.1    53.3     1.0     0.0     0.0     0.0     0.0     0.0     0.0     0.0     0.5     0.0     0.0     0.0     0.0     0.0     0.0     0.0     0.0
 2015 156    31    0.01    0.33    0.00     161    4.09    59.0   0.041   0.060   4.047   0.025     2.4    63.3     0.6    5509     0.0    3479    0.00    3.48    0.00    1.22     0.0     0.0     0.0     0.0     0.0     0.0     0.0     0.0     0.0   2744.    183.    137.    101.     75.     66.     59.     57.     56.     2.7     0.2     0.1     0.1     0.1     0.1     0.1     0.1     0.1     0.0     0.0     0.0     0.0     0.0     0.0     0.0     0.0     0.0     1.0     0.0     0.0     0.0     0.0     0.0     0.0     0.0     0.0
 2015 157    32    0.01    0.33    0.00     166    4.09    59.9   0.041   0.061   4.047   0.025     0.1     2.5     0.0    5294     0.0     922    0.00    0.92    0.00    0.20     0.0     0.0     0.0     0.0     0.0     0.0     0.0     0.0     0.0    463.     27.     46.     90.     69.     61.     56.     55.     54.     0.5     0.0     0.0     0.1     0.1     0.1     0.1     0.1     0.1     0.0     0.0     0.0     0.0     0.0     0.0     0.0     0.0     0.0     0.1     0.0     0.0     0.0     0.0     0.0     0.0     0.0     0.0
 2015 158    33    0.01    0.34    0.00     171    4.09    61.1   0.041   0.062   4.047   0.025     0.6    16.7     0.2    5350     0.0    1159    0.00    1.16    0.00    0.27     0.0     0.0     0.0     0.0     0.0     0.0     0.0     0.0     0.0    697.     41.     52.     83.     65.     59.     55.     54.     53.     0.7     0.0     0.1     0.1     0.1     0.1     0.1     0.1     0.1     0.0     0.0     0.0     0.0     0.0     0.0     0.0     0.0     0.0     0.1     0.0     0.0     0.0     0.0     0.0     0.0     0.0     0.0
 2015 159    34    0.01    0.39    0.00     177    4.09    62.4   0.041   0.063   4.047   0.025     1.6    41.7     0.4    5291     0.0    1328    0.00    1.33    0.00    0.38     0.0     0.0     0.0     0.0     0.0     0.0     0.0     0.0     0.0    803.     49.    121.     77.     62.     57.     53.     53.     52.     0.8     0.0     0.1     0.1     0.1     0.1     0.1     0.1     0.1     0.0     0.0     0.0     0.0     0.0     0.0     0.0     0.0     0.0     0.2     0.0     0.0     0.0     0.0     0.0     0.0     0.0     0.0
 2015 160    35    0.02    0.45    0.00     182    4.09    69.3   0.041   0.070   4.047   0.028     2.6    59.8     0.7    5289     0.0    6938    0.00    6.94    0.00    2.51     0.0     0.0     0.0     0.0     0.0     0.0     0.0     0.0     0.0   6335.    146.    112.     73.     61.     56.     53.     52.     52.     6.3     0.1     0.1     0.1     0.1     0.1     0.1     0.1     0.1     0.0     0.0     0.0     0.0     0.0     0.0     0.0     0.0     0.0     2.3     0.0     0.0     0.0     0.0     0.0     0.0     0.0     0.0
 2015 161    36    0.02    0.45    0.00     187    4.09    70.8   0.041   0.071   4.047   0.028     0.1     2.7     0.0    5200     0.0    1425    0.00    1.43    0.00    0.26     0.0     0.0     0.0     0.0     0.0     0.0     0.0     0.0     0.0   1084.     24.     21.     24.     60.     56.     53.     52.     52.     1.1     0.0     0.0     0.0     0.1     0.1     0.1     0.1     0.1     0.0     0.0     0.0     0.0     0.0     0.0     0.0     0.0     0.0     0.2     0.0     0.0     0.0     0.0     0.0     0.0     0.0     0.0
 2015 162    37    0.02    0.46    0.00     193    4.09    72.6   0.041   0.073   4.047   0.029     0.6    14.1     0.2    5296     0.0    1833    0.00    1.83    0.00    0.37     0.0     0.0     0.0     0.0     0.0     0.0     0.0     0.0     0.0   1465.     42.     32.     27.     58.     55.     52.     52.     51.     1.5     0.0     0.0     0.0     0.1     0.1     0.1     0.1     0.1     0.0     0.0     0.0     0.0     0.0     0.0     0.0     0.0     0.0     0.3     0.0     0.0     0.0     0.0     0.0     0.0     0.0     0.0
 2015 163    38    0.02    0.50    0.00     198    4.09    74.7   0.041   0.075   4.047   0.029     1.7    35.9     0.4    5306     0.0    2103    0.00    2.10    0.00    0.57     0.0     0.0     0.0     0.0     0.0     0.0     0.0     0.0     0.0   1661.     55.     43.     78.     57.     54.     52.     52.     51.     1.7     0.1     0.0     0.1     0.1     0.1     0.1     0.1     0.1     0.0     0.0     0.0     0.0     0.0     0.0     0.0     0.0     0.0     0.4     0.0     0.0     0.0     0.0     0.0     0.0     0.0     0.0
 2015 164    39    0.02    0.50    0.00     203    4.09    75.7   0.041   0.076   4.047   0.029     0.1     2.7     0.0    5177     0.0    1025    0.00    1.02    0.00    0.19     0.0     0.0     0.0     0.0     0.0     0.0     0.0     0.0     0.0    726.     29.     24.     18.     20.     53.     52.     51.     51.     0.7     0.0     0.0     0.0     0.0     0.1     0.1     0.1     0.1     0.0     0.0     0.0     0.0     0.0     0.0     0.0     0.0     0.0     0.1     0.0     0.0     0.0     0.0     0.0     0.0     0.0     0.0
 2015 165    40    0.02    0.52    0.01     208    4.30    77.1   0.043   0.078   4.260   0.030     0.8    17.8     0.2    5325   215.7    1363    2.21    1.36  213.54    0.70   112.6    54.9    48.3     0.0     0.0     0.0     0.0     0.0     0.0   1024.     46.     39.     24.     23.     53.     52.     52.     51.     2.2     0.6     0.5     0.0     0.0     0.1     0.1     0.1     0.1   111.3    54.4    47.8     0.0     0.0     0.0     0.0     0.0     0.0     0.4     0.1     0.1     0.0     0.0     0.0     0.0     0.0     0.0
 2015 166    41    0.02    0.56    0.01     214    4.38    78.6   0.044   0.079   4.333   0.031     1.9    43.4     0.5    5331    73.6    1531    0.86    1.53   72.70    0.65    39.7    13.7    20.2     0.0     0.0     0.0     0.0     0.0     0.0   1123.     55.     50.     29.     66.     53.     52.     52.     51.     1.6     0.2     0.3     0.0     0.1     0.1     0.1     0.1     0.1    39.2    13.5    20.0     0.0     0.0     0.0     0.0     0.0     0.0     0.5     0.0     0.1     0.0     0.0     0.0     0.0     0.0     0.0
 2015 167    42    0.03    0.63    0.01     219    4.38    81.3   0.044   0.082   4.335   0.032     2.8    62.7     0.7    5419     2.3    2693    0.03    2.69    2.22    0.95     0.0     0.0     2.3     0.0     0.0     0.0     0.0     0.0     0.0   2158.    164.     60.     34.     65.     54.     53.     53.     52.     2.2     0.2     0.1     0.0     0.1     0.1     0.1     0.1     0.1     0.0     0.0     2.2     0.0     0.0     0.0     0.0     0.0     0.0     0.8     0.0     0.0     0.0     0.0     0.0     0.0     0.0     0.0
 2015 168    43    0.03    0.63    0.01     224    4.56    81.9   0.046   0.083   4.510   0.032     0.1     2.6     0.0    5214   175.9     585    1.52    0.59  174.38    0.33     0.0     0.0    95.8    80.1     0.0     0.0     0.0     0.0     0.0    363.     26.     28.     16.     10.     17.     20.     53.     52.     0.4     0.0     0.9     0.7     0.0     0.0     0.0     0.1     0.1     0.0     0.0    95.0    79.4     0.0     0.0     0.0     0.0     0.0     0.1     0.0     0.1     0.1     0.0     0.0     0.0     0.0     0.0
 2015 169    44    0.03    0.64    0.01     230    4.66    82.7   0.047   0.083   4.611   0.032     0.7    14.8     0.2    5433   102.2     815    0.98    0.82  101.19    0.34     0.0     0.0    53.7    48.5     0.0     0.0     0.0     0.0     0.0    507.     40.     43.     25.     17.     21.     58.     52.     52.     0.5     0.0     0.6     0.5     0.0     0.0     0.1     0.1     0.1     0.0     0.0    53.1    48.1     0.0     0.0     0.0     0.0     0.0     0.1     0.0     0.1     0.1     0.0     0.0     0.0     0.0     0.0
 2015 170    45    0.03    0.68    0.01     235    4.71    83.6   0.047   0.084   4.661   0.033     1.6    35.6     0.4    5421    50.9     890    0.54    0.89   50.37    0.34     0.0     0.0    24.5    26.4     0.0     0.0     0.0     0.0     0.0    546.     49.     55.     32.     22.     24.     57.     52.     52.     0.5     0.0     0.3     0.3     0.0     0.0     0.1     0.1     0.1     0.0     0.0    24.3    26.1     0.0     0.0     0.0     0.0     0.0     0.1     0.0     0.1     0.1     0.0     0.0     0.0     0.0     0.0
 2015 171    46    0.03    0.68    0.01     240    4.88    84.1   0.049   0.085   4.834   0.033     0.1     2.9     0.0    5163   174.3     473    1.50    0.47  172.77    0.31     0.0     0.0    92.8    81.5     0.0     0.0     0.0     0.0     0.0    246.     26.     29.     18.     13.     19.     20.     51.     51.     0.2     0.0     0.8     0.7     0.0     0.0     0.0     0.1     0.1     0.0     0.0    92.0    80.8     0.0     0.0     0.0     0.0     0.0     0.0     0.0     0.1     0.1     0.0     0.0     0.0     0.0     0.0
 2015 172    47    0.03    0.70    0.01     246    5.16    84.7   0.051   0.085   5.113   0.034     0.7    16.4     0.2    5217   281.5     591    2.75    0.59  278.74    0.62    61.6    46.9    49.8    47.5    50.8    24.9     0.0     0.0     0.0    323.     37.     42.     27.     19.     22.     22.     49.     49.     1.0     0.5     0.5     0.5     0.5     0.3     0.0     0.0     0.0    60.9    46.4    49.3    47.0    50.4    24.7     0.0     0.0     0.0     0.2     0.1     0.1     0.1     0.1     0.1     0.0     0.0     0.0
 2015 173    48    0.03    0.74    0.01     251    5.29    85.3   0.053   0.086   5.242   0.034     1.7    38.4     0.4    5046   130.5     664    1.39    0.66  129.07    0.48    24.4    14.9    22.4    25.2    29.7    13.8     0.0     0.0     0.0    335.     44.     50.     33.     24.     25.     59.     47.     47.     0.6     0.2     0.3     0.3     0.3     0.2     0.1     0.0     0.0    24.1    14.8    22.2    24.9    29.4    13.7     0.0     0.0     0.0     0.2     0.0     0.1     0.1     0.1     0.0     0.0     0.0     0.0
 2015 174    49    0.03    0.80    0.01     256    5.34    86.1   0.053   0.087   5.283   0.034     2.7    62.2     0.7    4931    41.4     744    0.45    0.74   40.95    0.34     0.3     0.0     6.2    11.7    16.5     6.7     0.0     0.0     0.0    316.    133.     55.     37.     28.     27.     56.     46.     46.     0.3     0.1     0.1     0.2     0.2     0.1     0.1     0.0     0.0     0.3     0.0     6.1    11.5    16.4     6.7     0.0     0.0     0.0     0.1     0.0     0.0     0.0     0.0     0.0     0.0     0.0     0.0
 2015 175    50    0.03    0.80    0.01     260    5.65    86.4   0.056   0.087   5.597   0.035     0.1     2.9     0.0    4673   316.9     332    2.79    0.33  314.10    0.50    71.9     0.0    75.6    73.0    72.0    24.4     0.0     0.0     0.0    119.     21.     26.     18.     14.     23.     20.     45.     45.     0.8     0.0     0.7     0.6     0.6     0.3     0.0     0.0     0.0    71.2     0.0    75.0    72.3    71.4    24.1     0.0     0.0     0.0     0.1     0.0     0.1     0.1     0.1     0.1     0.0     0.0     0.0
 2015 176    51    0.03    0.82    0.01     265    5.84    86.8   0.058   0.088   5.778   0.035     0.6    16.1     0.2    4773   182.5     416    1.79    0.42  180.68    0.41    39.0     0.0    41.5    43.1    44.6    14.2     0.0     0.0     0.0    163.     31.     37.     27.     21.     26.     22.     45.     45.     0.6     0.0     0.4     0.4     0.4     0.2     0.0     0.0     0.0    38.6     0.0    41.1    42.7    44.2    14.0     0.0     0.0     0.0     0.1     0.0     0.1     0.1     0.1     0.0     0.0     0.0     0.0
 2015 177    52    0.04    0.86    0.01     270    5.92    87.3   0.059   0.088   5.866   0.036     1.6    40.4     0.4    4809    89.5     512    0.95    0.51   88.56    0.35    15.1     0.0    18.4    22.8    26.4     6.8     0.0     0.0     0.0    184.     41.     47.     34.     27.     29.     60.     45.     45.     0.4     0.0     0.2     0.3     0.3     0.1     0.1     0.0     0.0    14.9     0.0    18.2    22.6    26.1     6.7     0.0     0.0     0.0     0.1     0.0     0.1     0.1     0.1     0.0     0.0     0.0     0.0
 2015 178    53    0.04    0.86    0.01     275    6.11    87.7   0.061   0.088   6.053   0.036     0.1     3.0     0.0    4732   189.1     336    1.77    0.34  187.36    0.37    56.9     0.0    61.1    33.0    26.7    11.5     0.0     0.0     0.0     84.     22.     29.     32.     28.     29.     22.     46.     46.     0.6     0.0     0.6     0.4     0.3     0.2     0.0     0.0     0.0    56.4     0.0    60.5    32.7    26.4    11.4     0.0     0.0     0.0     0.1     0.0     0.1     0.1     0.1     0.0     0.0     0.0     0.0
 2015 179    54    0.04    0.88    0.01     279    6.24    88.1   0.062   0.089   6.181   0.036     0.7    17.9     0.2    4776   128.6     440    1.31    0.44  127.30    0.36    29.9    29.3    31.9    17.3    14.9     5.3     0.0     0.0     0.0    118.     33.     40.     37.     32.     31.     61.     45.     45.     0.4     0.3     0.4     0.2     0.2     0.1     0.1     0.0     0.0    29.6    29.0    31.6    17.1    14.8     5.2     0.0     0.0     0.0     0.1     0.1     0.1     0.0     0.0     0.0     0.0     0.0     0.0
 2015 180    55    0.04    0.92    0.01     284    6.29    88.6   0.062   0.089   6.230   0.037     1.6    42.2     0.4    4708    50.2     467    0.56    0.47   49.65    0.26    12.0     9.3    13.3     7.6     7.2     0.9     0.0     0.0     0.0    127.     40.     47.     41.     34.     32.     58.     44.     45.     0.3     0.1     0.2     0.1     0.1     0.0     0.1     0.0     0.0    11.8     9.2    13.1     7.5     7.1     0.9     0.0     0.0     0.0     0.1     0.0     0.0     0.0     0.0     0.0     0.0     0.0     0.0
 2015 181    56    0.04    0.99    0.01     289    6.30    89.3   0.063   0.090   6.234   0.037     2.5    69.0     0.6    4721     3.9     738    0.05    0.74    3.88    0.24     0.0     0.0     1.7     0.7     1.5     0.0     0.0     0.0     0.0    248.    125.     54.     44.     37.     85.     56.     45.     45.     0.2     0.1     0.1     0.1     0.1     0.1     0.1     0.0     0.0     0.0     0.0     1.7     0.7     1.5     0.0     0.0     0.0     0.0     0.1     0.0     0.0     0.0     0.0     0.0     0.0     0.0     0.0
 2015 182    57    0.04    0.99    0.01     293    6.48    89.6   0.064   0.090   6.421   0.037     0.1     3.0     0.0    4555   188.1     263    1.61    0.26  186.49    0.30     0.0     0.0    56.1    63.7    68.3     0.0     0.0     0.0     0.0     45.     20.     25.     19.     17.     27.     21.     45.     45.     0.0     0.0     0.5     0.6     0.6     0.0     0.0     0.0     0.0     0.0     0.0    55.6    63.2    67.7     0.0     0.0     0.0     0.0     0.0     0.0     0.1     0.1     0.1     0.0     0.0     0.0     0.0
 2015 183    58    0.04    1.01    0.01     298    6.60    89.9   0.065   0.091   6.531   0.037     0.6    17.5     0.2    4833   111.0     377    1.06    0.38  109.89    0.27     0.0     0.0    30.7    37.7    42.5     0.0     0.0     0.0     0.0     66.     33.     38.     31.     26.     30.     60.     46.     46.     0.1     0.0     0.3     0.4     0.4     0.0     0.1     0.0     0.0     0.0     0.0    30.4    37.3    42.1     0.0     0.0     0.0     0.0     0.0     0.0     0.1     0.1     0.1     0.0     0.0     0.0     0.0
 2015 184    59    0.04    1.05    0.01     303    6.66    90.4   0.066   0.091   6.590   0.038     1.5    40.7     0.4    4963    60.0     431    0.62    0.43   59.41    0.24     0.0     0.0    14.1    20.4    25.5     0.0     0.0     0.0     0.0     75.     43.     49.     41.     34.     34.     60.     48.     48.     0.1     0.0     0.2     0.2     0.3     0.0     0.1     0.0     0.0     0.0     0.0    13.9    20.2    25.3     0.0     0.0     0.0     0.0     0.0     0.0     0.0     0.1     0.1     0.0     0.0     0.0     0.0
 2015 185    60    0.04    1.05    0.01     308    6.74    90.7   0.067   0.091   6.677   0.038     0.1     3.2     0.0    5010    87.3     367    0.86    0.37   86.49    0.24     0.0     0.0    37.1    25.8    24.5     0.0     0.0     0.0     0.0     36.     24.     37.     40.     36.     35.     60.     49.     49.     0.0     0.0     0.4     0.3     0.3     0.0     0.1     0.0     0.0     0.0     0.0    36.7    25.5    24.2     0.0     0.0     0.0     0.0     0.0     0.0     0.1     0.1     0.1     0.0     0.0     0.0     0.0
 2015 186    61    0.04    1.07    0.01     313    6.82    91.2   0.068   0.092   6.756   0.038     0.7    19.0     0.2    5187    80.3     430    0.84    0.43   79.47    0.28    16.6    18.0    17.7    12.6    13.0     2.3     0.0     0.0     0.0     53.     38.     50.     47.     42.     38.     60.     51.     50.     0.2     0.2     0.2     0.2     0.2     0.1     0.1     0.1     0.1    16.5    17.9    17.5    12.5    12.9     2.3     0.0     0.0     0.0     0.0     0.0     0.1     0.0     0.0     0.0     0.0     0.0     0.0
 2015 187    62    0.04    1.11    0.01     319    6.85    91.7   0.068   0.092   6.786   0.038     1.5    42.0     0.4    5238    30.3     529    0.34    0.53   29.99    0.23     6.6     5.9     6.8     5.1     6.0     0.0     0.0     0.0     0.0     60.     47.     59.     52.     46.    104.     59.     51.     51.     0.1     0.1     0.1     0.1     0.1     0.1     0.1     0.1     0.1     6.6     5.8     6.7     5.0     5.9     0.0     0.0     0.0     0.0     0.0     0.0     0.0     0.0     0.0     0.0     0.0     0.0     0.0
 2015 188    63    0.05    1.18    0.01     324    6.86    92.3   0.068   0.093   6.790   0.039     2.2    62.7     0.5    5192     3.8     623    0.04    0.62    3.75    0.20     0.7     0.0     0.9     0.6     1.6     0.0     0.0     0.0     0.0     63.    144.     63.     54.     47.     94.     57.     50.     50.     0.1     0.1     0.1     0.1     0.1     0.1     0.1     0.1     0.1     0.7     0.0     0.9     0.5     1.6     0.0     0.0     0.0     0.0     0.0     0.0     0.0     0.0     0.0     0.0     0.0     0.0     0.0
 2015 189    64    0.05    1.24    0.01     329    6.86    93.1   0.068   0.094   6.790   0.039     2.2    64.3     0.5    4991     0.3     778    0.00    0.78    0.32    0.88     0.0     0.0     0.0     0.0     0.3     0.0     0.0     0.0     0.0    112.    124.    133.    132.     45.     83.     53.     48.     48.     0.1     0.1     0.1     0.1     0.0     0.1     0.1     0.0     0.0     0.0     0.0     0.0     0.0     0.3     0.0     0.0     0.0     0.0     0.2     0.1     0.2     0.1     0.1     0.1     0.1     0.1     0.1
 2015 190    65    0.05    1.28    0.01     333    6.86    93.7   0.068   0.094   6.790   0.040     1.4    42.2     0.4    4615     0.0     602    0.00    0.60    0.00    0.54     0.0     0.0     0.0     0.0     0.0     0.0     0.0     0.0     0.0     39.     35.    110.    108.    106.     70.     47.     43.     43.     0.0     0.0     0.1     0.1     0.1     0.1     0.0     0.0     0.0     0.0     0.0     0.0     0.0     0.0     0.0     0.0     0.0     0.0     0.0     0.0     0.1     0.1     0.1     0.1     0.0     0.0     0.0
 2015 191    66    0.05    1.35    0.01     338    6.86    94.4   0.068   0.095   6.790   0.041     2.1    62.3     0.5    4439     0.0     660    0.00    0.66    0.00    0.49     0.0     0.0     0.0     0.0     0.0     0.0     0.0     0.0     0.0     83.    100.     97.     95.     93.     64.     45.     41.     42.     0.1     0.1     0.1     0.1     0.1     0.1     0.0     0.0     0.0     0.0     0.0     0.0     0.0     0.0     0.0     0.0     0.0     0.0     0.1     0.1     0.1     0.1     0.1     0.0     0.0     0.0     0.0
 2015 192    67    0.05    1.35    0.01     342    6.86    94.7   0.068   0.095   6.790   0.041     0.1     3.1     0.0    4415     0.0     381    0.00    0.38    0.00    0.21     0.0     0.0     0.0     0.0     0.0     0.0     0.0     0.0     0.0     16.     17.     35.     35.     88.     62.     45.     42.     42.     0.0     0.0     0.0     0.0     0.1     0.1     0.0     0.0     0.0     0.0     0.0     0.0     0.0     0.0     0.0     0.0     0.0     0.0     0.0     0.0     0.0     0.0     0.1     0.0     0.0     0.0     0.0
 2015 193    68    0.05    1.37    0.01     347    6.86    95.2   0.068   0.096   6.790   0.041     0.6    17.4     0.1    4574     0.0     466    0.00    0.47    0.00    0.21     0.0     0.0     0.0     0.0     0.0     0.0     0.0     0.0     0.0     25.     28.     41.     94.     84.     61.     46.     43.     43.     0.0     0.0     0.0     0.1     0.1     0.1     0.0     0.0     0.0     0.0     0.0     0.0     0.0     0.0     0.0     0.0     0.0     0.0     0.0     0.0     0.0     0.0     0.0     0.0     0.0     0.0     0.0
 2015 194    69    0.05    1.41    0.01     352    6.86    95.8   0.068   0.096   6.790   0.041     1.3    38.7     0.3    4805     0.0     560    0.00    0.56    0.00    0.22     0.0     0.0     0.0     0.0     0.0     0.0     0.0     0.0     0.0     31.     38.    108.     94.     85.     63.     49.     46.     46.     0.0     0.0     0.1     0.1     0.1     0.1     0.0     0.0     0.0     0.0     0.0     0.0     0.0     0.0     0.0     0.0     0.0     0.0     0.0     0.0     0.0     0.0     0.0     0.0     0.0     0.0     0.0
 2015 195    70    0.05    1.41    0.01     357    6.86    96.1   0.068   0.097   6.790   0.041     0.1     2.9     0.0    5127     0.0     284    0.00    0.28    0.00    0.07     0.0     0.0     0.0     0.0     0.0     0.0     0.0     0.0     0.0     16.     24.     23.     17.     20.     25.     55.     52.     52.     0.0     0.0     0.0     0.0     0.0     0.0     0.1     0.1     0.1     0.0     0.0     0.0     0.0     0.0     0.0     0.0     0.0     0.0     0.0     0.0     0.0     0.0     0.0     0.0     0.0     0.0     0.0
 2015 196    71    0.06    1.42    0.01     362    6.88    96.4   0.068   0.097   6.814   0.041     0.5    14.7     0.1    5507    23.9     356    0.24    0.36   23.71    0.13    11.0    13.0     0.0     0.0     0.0     0.0     0.0     0.0     0.0     23.     39.     38.     29.     30.     30.     57.     55.     55.     0.1     0.2     0.0     0.0     0.0     0.0     0.1     0.1     0.1    10.8    12.9     0.0     0.0     0.0     0.0     0.0     0.0     0.0     0.0     0.0     0.0     0.0     0.0     0.0     0.0     0.0     0.0
 2015 197    72    0.06    1.46    0.01     368    6.89    96.9   0.068   0.098   6.825   0.042     1.0    32.1     0.3    5535    11.2     449    0.12    0.45   11.08    0.15     5.9     5.3     0.0     0.0     0.0     0.0     0.0     0.0     0.0     25.     50.     50.     38.     36.     82.     57.     55.     55.     0.1     0.1     0.0     0.0     0.0     0.1     0.1     0.1     0.1     5.8     5.2     0.0     0.0     0.0     0.0     0.0     0.0     0.0     0.0     0.0     0.0     0.0     0.0     0.0     0.0     0.0     0.0
[...]
 2016 187    34    0.14    0.82    0.03     245    4.43    49.1   0.575   0.050   3.853   0.149     6.7    46.5     1.5    6970   243.3    3187   20.98    3.19  222.32    6.31   105.4    63.3    74.6     0.0     0.0     0.0     0.0     0.0     0.0   2917.     38.     24.     19.     23.     44.     41.     41.     40.     5.2     1.6    17.1     0.0     0.0     0.0     0.0     0.0     0.0   103.1    61.7    57.5     0.0     0.0     0.0     0.0     0.0     0.0     1.1     0.4     4.6     0.0     0.0     0.0     0.0     0.0     0.0
 2016 188    35    0.15    0.91    0.03     252    4.56    52.8   0.591   0.053   3.967   0.156    13.9    96.8     3.1    7045   129.9    3722   15.92    3.72  114.00    7.05    60.9    28.3    40.7     0.0     0.0     0.0     0.0     0.0     0.0   3428.     45.     32.     24.     26.     44.     41.     41.     40.     4.6     5.9     8.8     0.0     0.0     0.0     0.0     0.0     0.0    59.7    22.4    31.9     0.0     0.0     0.0     0.0     0.0     0.0     1.5     2.1     3.4     0.0     0.0     0.0     0.0     0.0     0.0
 2016 189    36    0.17    1.06    0.04     259    4.61    56.6   0.605   0.057   4.003   0.164    21.5   144.1     4.9    7070    49.6    3848   13.73    3.85   35.85    8.19    24.4     6.1    19.1     0.0     0.0     0.0     0.0     0.0     0.0   3513.     52.     37.     28.     50.     44.     42.     42.     41.    12.1     1.3     4.0     0.0     0.1     0.0     0.0     0.0     0.0    15.8     4.9    15.2     0.0     0.0     0.0     0.0     0.0     0.0     5.4     0.6     2.0     0.0     0.0     0.0     0.0     0.0     0.0
 2016 190    37    0.17    1.07    0.04     266    5.13    58.3   0.746   0.059   4.388   0.191     1.9    11.2     0.4    6989   525.4    1636  140.56    1.64  384.83   26.78   195.5   123.1   127.5    79.3     0.0     0.0     0.0     0.0     0.0   1400.     24.     17.     20.     25.     24.     42.     42.     41.    64.5    28.8    30.0    18.7     0.0     0.0     0.0     0.0     0.0   132.4    94.4    97.5    60.6     0.0     0.0     0.0     0.0     0.0    10.3     5.2     5.7     5.5     0.0     0.0     0.0     0.0     0.0
 2016 191    38    0.18    1.12    0.04     273    5.43    60.7   0.823   0.061   4.607   0.212     9.1    50.8     2.0    7200   296.1    2449   77.25    2.45  218.83   20.84   113.7    63.9    72.9    45.6     0.0     0.0     0.0     0.0     0.0   2153.     39.     29.     26.     28.     47.     43.     42.     42.    38.9    14.2    16.2    10.3     0.0     0.0     0.0     0.0     0.0    77.0    49.8    56.7    35.3     0.0     0.0     0.0     0.0     0.0     8.6     3.6     4.4     4.0     0.0     0.0     0.0     0.0     0.0
 2016 192    39    0.20    1.23    0.04     281    5.58    63.6   0.861   0.064   4.716   0.227    19.9   106.8     4.5    7364   147.5    2871   38.02    2.87  109.45   15.19    58.4    26.1    38.8    24.3     0.0     0.0     0.0     0.0     0.0   2539.     51.     38.     32.     31.     48.     44.     44.     43.    21.8     5.5     8.1     5.3     0.0     0.0     0.0     0.0     0.0    39.1    20.7    30.7    19.0     0.0     0.0     0.0     0.0     0.0     7.2     2.0     3.2     2.7     0.0     0.0     0.0     0.0     0.0
 2016 193    40    0.21    1.24    0.04     288    6.15    65.0   0.957   0.066   5.191   0.245     2.3    12.9     0.5    7319   570.5    1439   95.77    1.44  474.73   18.74   176.2   124.9   130.4   139.1     0.0     0.0     0.0     0.0     0.0   1187.     28.     21.     15.     27.     26.     45.     45.     44.     5.1    28.5    30.1    33.3     0.0     0.0     0.0     0.0     0.0   172.3    96.4   100.3   105.8     0.0     0.0     0.0     0.0     0.0     0.8     5.2     5.8     6.9     0.0     0.0     0.0     0.0     0.0
 2016 194    41    0.22    1.30    0.05     296    6.50    67.1   1.014   0.068   5.485   0.263     9.9    57.9     2.2    7681   350.9    2125   57.21    2.12  293.73   17.55   101.4    63.7    74.5    84.5    26.9     0.0     0.0     0.0     0.0   1822.     44.     35.     26.     32.     29.     46.     46.     45.     4.1    13.6    16.1    19.2     6.1     0.0     0.0     0.0     0.0    99.1    50.1    58.4    65.3    20.8     0.0     0.0     0.0     0.0     0.9     3.5     4.5     5.5     3.1     0.0     0.0     0.0     0.0
 2016 195    42    0.24    1.42    0.05     304    6.67    69.6   1.053   0.070   5.614   0.279    21.8   124.1     5.0    7788   168.2    2407   38.91    2.41  129.34   16.14    46.4    22.4    37.4    48.3    13.8     0.0     0.0     0.0     0.0   2063.     57.     46.     34.     36.     32.     47.     47.     46.    15.6     4.5     7.6    10.5     3.1     0.0     0.0     0.0     0.0    32.9    18.0    29.9    37.9    10.8     0.0     0.0     0.0     0.0     5.4     1.7     3.1     4.1     1.8     0.0     0.0     0.0     0.0
 2016 196    43    0.27    1.60    0.06     311    6.72    75.5   1.066   0.076   5.659   0.289    32.7   181.3     7.7    7851    57.3    5975   12.71    5.97   44.60    9.73    10.1     0.0    15.7    25.9     5.6     0.0     0.0     0.0     0.0   5512.    129.     53.     40.     39.     61.     47.     47.     46.     8.6     0.1     3.1     5.5     1.3     0.1     0.0     0.0     0.0     7.0     0.0    12.7    20.5     4.4     0.0     0.0     0.0     0.0     4.3     0.1     1.7     2.7     0.8     0.0     0.0     0.0     0.0
 2016 197    44    0.27    1.62    0.06     319    7.15    77.8   1.178   0.078   5.972   0.313     2.7    13.7     0.6    7716   426.1    2226  112.47    2.23  313.65   23.69   204.2     0.0   127.5    71.1    23.3     0.0     0.0     0.0     0.0   1936.     27.     24.     31.     36.     32.     47.     47.     46.    65.8     0.0    28.0    15.5     5.2     0.0     0.0     0.0     0.0   140.4     0.0    99.5    55.6    18.2     0.0     0.0     0.0     0.0    10.6     0.0     5.4     4.9     2.7     0.0     0.0     0.0     0.0
 2016 198    45    0.29    1.68    0.06     327    7.38    80.7   1.239   0.081   6.145   0.331    12.9    62.9     2.9    7866   234.0    2969   61.00    2.97  172.96   18.11   114.5     0.0    69.7    38.6    11.1     0.0     0.0     0.0     0.0   2631.     47.     39.     38.     39.     34.     47.     47.     46.    39.0     0.0    14.3     8.0     2.4     0.0     0.0     0.0     0.0    78.2     0.0    55.4    30.6     8.7     0.0     0.0     0.0     0.0     9.1     0.0     4.0     3.4     1.5     0.0     0.0     0.0     0.0
 2016 199    46    0.31    1.81    0.07     335    7.49    83.8   1.267   0.084   6.224   0.343    27.9   132.3     6.5    7845   105.8    3087   27.58    3.09   78.23   12.39    51.0     0.0    33.9    18.0     2.9     0.0     0.0     0.0     0.0   2690.     59.     51.     44.     41.     63.     47.     46.     46.    19.6     0.1     6.6     3.6     0.7     0.1     0.0     0.0     0.0    34.1     0.0    27.4    14.4     2.3     0.0     0.0     0.0     0.0     7.1     0.0     2.7     2.0     0.5     0.0     0.0     0.0     0.0
 2016 200    47    0.35    2.00    0.08     343    7.52    86.7   1.274   0.087   6.246   0.348    39.8   187.1     9.4    7646    28.9    2848    6.91    2.85   22.00    5.35     9.1     0.0    13.7     6.0     0.0     0.0     0.0     0.0     0.0   2359.    124.     55.     45.     74.     58.     45.     45.     44.     5.6     0.1     2.6     1.2     0.1     0.1     0.0     0.0     0.0     5.9     0.0    11.2     4.9     0.0     0.0     0.0     0.0     0.0     2.9     0.1     1.4     0.8     0.1     0.0     0.0     0.0     0.0
 2016 201    48    0.40    2.19    0.09     350    7.52    90.3   1.274   0.091   6.246   0.351    41.1   191.2     9.8    7502     0.4    3613    0.07    3.61    0.31    2.13     0.0     0.0     0.4     0.0     0.0     0.0     0.0     0.0     0.0   3115.    108.     57.     83.     67.     54.     43.     43.     43.     3.1     0.1     0.1     0.1     0.1     0.1     0.0     0.0     0.0     0.0     0.0     0.3     0.0     0.0     0.0     0.0     0.0     0.0     1.7     0.1     0.1     0.1     0.0     0.0     0.0     0.0     0.0
 2016 202    49    0.40    2.20    0.09     357    7.61    91.2   1.292   0.092   6.316   0.355     2.6    12.1     0.6    7347    88.9     886   18.56    0.89   70.32    4.54     0.0     0.0    88.9     0.0     0.0     0.0     0.0     0.0     0.0    583.     22.     30.     36.     34.     52.     43.     43.     43.     0.6     0.0    18.6     0.0     0.0     0.1     0.0     0.0     0.0     0.0     0.0    70.3     0.0     0.0     0.0     0.0     0.0     0.0     0.1     0.0     4.3     0.0     0.0     0.0     0.0     0.0     0.0
 2016 203    50    0.41    2.26    0.09     365    7.66    92.3   1.301   0.093   6.354   0.359    11.6    53.7     2.8    7326    46.7    1152    9.18    1.15   37.51    3.50     0.0     0.0    46.7     0.0     0.0     0.0     0.0     0.0     0.0    798.     36.     41.     40.     62.     49.     42.     42.     42.     0.8     0.0     9.2     0.0     0.1     0.0     0.0     0.0     0.0     0.0     0.0    37.5     0.0     0.0     0.0     0.0     0.0     0.0     0.2     0.0     3.1     0.0     0.0     0.0     0.0     0.0     0.0
 2016 204    51    0.43    2.37    0.10     372    7.68    93.5   1.305   0.094   6.371   0.361    23.9   110.3     5.7    7230    21.2    1187    3.95    1.19   17.21    2.42     0.0     0.0    21.2     0.0     0.0     0.0     0.0     0.0     0.0    823.     45.     48.     42.     58.     47.     41.     41.     41.     0.8     0.0     4.0     0.0     0.1     0.0     0.0     0.0     0.0     0.0     0.0    17.2     0.0     0.0     0.0     0.0     0.0     0.0     0.3     0.0     1.9     0.0     0.0     0.0     0.0     0.0     0.0
 2016 205    52    0.44    2.38    0.10     379    7.79    94.1   1.331   0.095   6.463   0.366     2.5    11.7     0.6    7219   117.4     610   25.44    0.61   91.93    5.07     0.0     0.0   117.4     0.0     0.0     0.0     0.0     0.0     0.0    356.     24.     24.     24.     28.     26.     43.     42.     42.     0.4     0.0    25.5     0.0     0.0     0.0     0.0     0.0     0.0     0.0     0.0    91.9     0.0     0.0     0.0     0.0     0.0     0.0     0.1     0.0     4.9     0.0     0.0     0.0     0.0     0.0     0.0
 2016 206    53    0.45    2.43    0.10     387    8.06    94.9   1.390   0.095   6.672   0.382    10.9    49.3     2.6    7477   267.8     810   59.16    0.81  208.62   15.92    84.3    63.3    68.4    51.8     0.0     0.0     0.0     0.0     0.0    508.     39.     39.     34.     32.     28.     44.     43.     43.    21.9    13.5    14.0    10.5     0.0     0.0     0.0     0.0     0.0    63.0    49.9    54.4    41.4     0.0     0.0     0.0     0.0     0.0     4.9     3.4     3.8     3.6     0.0     0.0     0.0     0.0     0.0
 2016 207    54    0.47    2.54    0.11     394    8.18    95.8   1.415   0.096   6.765   0.392    24.4   109.2     5.9    7552   118.6     920   24.79    0.92   93.82   10.14    35.4    21.8    34.0    27.4     0.0     0.0     0.0     0.0     0.0    554.     51.     51.     41.     35.     55.     44.     44.     44.     9.2     4.3     6.6     5.4     0.0     0.1     0.0     0.0     0.0    26.8    17.5    27.5    22.1     0.0     0.0     0.0     0.0     0.0     3.2     1.6     2.7     2.5     0.0     0.0     0.0     0.0     0.0
 2016 208    55    0.51    2.70    0.12     402    8.21    96.8   1.420   0.097   6.788   0.396    37.4   166.6     9.1    7587    28.1     990    5.42    0.99   22.66    3.64     4.0     0.0    12.6    11.5     0.0     0.0     0.0     0.0     0.0    514.    117.     58.     47.     66.     54.     45.     44.     44.     1.5     0.1     2.4     2.2     0.1     0.1     0.0     0.0     0.0     3.0     0.0    10.3     9.3     0.0     0.0     0.0     0.0     0.0     0.8     0.1     1.3     1.3     0.0     0.0     0.0     0.0     0.0
 2016 209    56    0.51    2.71    0.12     409    8.47    97.3   1.474   0.098   7.001   0.407     2.7    12.1     0.7    7475   266.8     472   53.73    0.47  213.11   11.53   104.6     0.0   115.2    47.0     0.0     0.0     0.0     0.0     0.0    188.     25.     26.     38.     33.     29.     45.     45.     44.    20.6     0.0    24.1     9.3     0.0     0.0     0.0     0.0     0.0    84.2     0.0    91.2    37.7     0.0     0.0     0.0     0.0     0.0     3.3     0.0     4.6     3.4     0.0     0.0     0.0     0.0     0.0
 2016 210    57    0.52    2.77    0.12     417    8.62    97.9   1.501   0.098   7.117   0.416    12.3    54.5     3.0    7721   143.2     630   27.31    0.63  115.92    8.41    55.2     0.0    63.7    24.3     0.0     0.0     0.0     0.0     0.0    271.     42.     43.     45.     36.     56.     46.     45.     45.    10.6     0.0    12.4     4.7     0.0     0.1     0.0     0.0     0.0    44.9     0.0    51.3    19.7     0.0     0.0     0.0     0.0     0.0     2.5     0.0     3.5     2.3     0.0     0.0     0.0     0.0     0.0
 2016 211    58    0.55    2.88    0.13     425    8.68    98.6   1.512   0.099   7.168   0.421    25.6   113.2     6.2    7750    62.6     699   11.31    0.70   51.27    5.17    22.3     0.0    31.0     9.3     0.0     0.0     0.0     0.0     0.0    280.     54.     55.     50.     69.     55.     46.     46.     45.     4.3     0.1     5.7     1.8     0.1     0.1     0.0     0.0     0.0    18.3     0.0    25.4     7.6     0.0     0.0     0.0     0.0     0.0     1.5     0.0     2.4     1.1     0.0     0.0     0.0     0.0     0.0
 2016 212    59    0.55    2.89    0.13     432    8.96    99.0   1.563   0.100   7.394   0.431     2.8    12.3     0.7    7569   276.5     394   50.63    0.39  225.89   10.42    72.1     0.0   106.8    97.6     0.0     0.0     0.0     0.0     0.0    117.     28.     28.     26.     31.     29.     46.     45.     45.    10.3     0.0    20.7    19.8     0.0     0.0     0.0     0.0     0.0    61.9     0.0    86.1    77.8     0.0     0.0     0.0     0.0     0.0     1.7     0.0     4.0     4.6     0.0     0.0     0.0     0.0     0.0
 2016 213    60    0.56    2.95    0.13     440    9.15    99.5   1.595   0.100   7.553   0.441    12.3    54.8     3.0    7711   191.7     490   32.36    0.49  159.32    9.49    37.6    40.5    57.7    55.8     0.0     0.0     0.0     0.0     0.0    164.     44.     44.     37.     34.     31.     45.     45.     45.     5.3     6.3    10.4    10.7     0.0     0.0     0.0     0.0     0.0    32.5    34.3    47.3    45.1     0.0     0.0     0.0     0.0     0.0     1.2     1.7     2.9     3.5     0.0     0.0     0.0     0.0     0.0
 2016 214    61    0.59    3.06    0.14     448    9.24   100.1   1.610   0.101   7.627   0.447    25.0   111.3     6.1    7617    87.7     545   14.19    0.54   73.47    6.08    15.8    13.8    28.2    29.9     0.0     0.0     0.0     0.0     0.0    165.     54.     55.     45.     36.     57.     44.     44.     44.     2.2     2.0     4.8     5.5     0.0     0.1     0.0     0.0     0.0    13.7    11.8    23.5    24.4     0.0     0.0     0.0     0.0     0.0     0.8     0.8     2.0     2.4     0.0     0.0     0.0     0.0     0.0
 2016 215    62    0.63    3.23    0.15     455    9.26   100.7   1.614   0.101   7.647   0.449    38.0   168.2     9.3    7452    24.0     616    3.98    0.62   20.04    2.61     1.4     0.0     9.8    12.9     0.0     0.0     0.0     0.0     0.0    142.    117.     60.     48.     67.     53.     43.     43.     43.     0.3     0.1     1.6     2.3     0.1     0.1     0.0     0.0     0.0     1.2     0.0     8.2    10.6     0.0     0.0     0.0     0.0     0.0     0.2     0.1     0.9     1.3     0.0     0.0     0.0     0.0     0.0
 2016 216    63    0.63    3.24    0.15     462    9.43   101.0   1.640   0.102   7.793   0.456     2.6    11.6     0.6    7219   173.3     324   26.85    0.32  146.45    6.51    44.5     0.0    87.4    41.4     0.0     0.0     0.0     0.0     0.0     50.     24.     26.     38.     32.     28.     42.     42.     42.     4.3     0.0    15.0     7.6     0.0     0.0     0.0     0.0     0.0    40.2     0.0    72.4    33.9     0.0     0.0     0.0     0.0     0.0     0.7     0.0     2.9     2.8     0.0     0.0     0.0     0.0     0.0
 2016 217    64    0.64    3.29    0.15     470    9.53   101.4   1.654   0.102   7.872   0.461    11.1    50.0     2.7    7303    92.0     404   13.29    0.40   78.72    4.54    23.9     0.0    47.4    20.7     0.0     0.0     0.0     0.0     0.0     70.     38.     41.     44.     34.     52.     42.     42.     42.     2.3     0.0     7.5     3.6     0.0     0.1     0.0     0.0     0.0    21.7     0.0    39.9    17.1     0.0     0.0     0.0     0.0     0.0     0.5     0.0     2.1     1.8     0.0     0.0     0.0     0.0     0.0
 2016 218    65    0.66    3.39    0.15     477    9.57   101.9   1.659   0.102   7.909   0.463    22.8   102.2     5.6    7349    42.3     466    5.73    0.47   36.52    2.79    10.8     0.0    23.8     7.7     0.0     0.0     0.0     0.0     0.0     73.     49.     52.     49.     66.     51.     42.     42.     42.     1.0     0.0     3.5     1.3     0.1     0.1     0.0     0.0     0.0     9.9     0.0    20.3     6.4     0.0     0.0     0.0     0.0     0.0     0.4     0.0     1.4     0.8     0.0     0.0     0.0     0.0     0.0
 2016 219    66    0.67    3.40    0.15     484    9.76   102.2   1.689   0.103   8.075   0.470     2.3    10.6     0.6    7262   195.2     296   29.28    0.30  165.88    6.19    32.7     0.0    75.7    86.8     0.0     0.0     0.0     0.0     0.0     30.     26.     27.     25.     30.     28.     43.     43.     43.     2.3     0.0    11.3    15.7     0.0     0.0     0.0     0.0     0.0    30.4     0.0    64.4    71.1     0.0     0.0     0.0     0.0     0.0     0.4     0.0     2.2     3.5     0.0     0.0     0.0     0.0     0.0
 2016 220    67    0.68    3.45    0.16     492    9.90   102.6   1.707   0.103   8.194   0.475    10.1    45.9     2.5    7594   137.3     392   18.04    0.39  119.23    5.39    19.3    25.9    42.4    49.6     0.0     0.0     0.0     0.0     0.0     44.     42.     44.     38.     36.     55.     45.     44.     44.     1.4     2.6     5.9     8.4     0.0     0.1     0.0     0.0     0.0    18.0    23.4    36.6    41.2     0.0     0.0     0.0     0.0     0.0     0.3     0.7     1.6     2.6     0.0     0.0     0.0     0.0     0.0
 2016 221    68    0.70    3.54    0.16     499    9.97   103.0   1.716   0.104   8.257   0.479    20.2    91.5     5.0    7674    73.0     435    9.29    0.43   63.67    3.94    10.8    12.1    23.1    27.0     0.0     0.0     0.0     0.0     0.0     48.     54.     57.     47.     39.     54.     45.     45.     45.     0.8     1.2     3.1     4.4     0.0     0.1     0.0     0.0     0.0    10.0    10.9    20.1    22.7     0.0     0.0     0.0     0.0     0.0     0.3     0.4     1.2     1.9     0.0     0.0     0.0     0.0     0.0
 2016 222    69    0.73    3.67    0.17     507   10.01   103.5   1.720   0.104   8.286   0.481    29.3   132.6     7.3    7800    32.5     494    4.17    0.49   28.28    2.48     4.9     3.5    11.2    12.9     0.0     0.0     0.0     0.0     0.0     44.     62.     65.     54.     75.     54.     46.     46.     46.     0.4     0.4     1.5     2.1     0.1     0.1     0.0     0.0     0.0     4.5     3.1     9.8    10.8     0.0     0.0     0.0     0.0     0.0     0.2     0.2     0.8     1.1     0.1     0.0     0.0     0.0     0.0
 2016 223    70    0.73    3.68    0.17     515   10.22   103.8   1.747   0.104   8.474   0.487     1.9     8.5     0.5    7726   215.0     342   26.58    0.34  188.42    6.05    32.6    48.2    74.6    59.6     0.0     0.0     0.0     0.0     0.0     15.     28.     29.     38.     37.     54.     47.     47.     47.     2.1     4.5    10.2    10.0     0.0     0.1     0.0     0.0     0.0    30.5    43.8    64.5    49.6     0.0     0.0     0.0     0.0     0.0     0.3     0.8     1.9     2.9     0.0     0.0     0.0     0.0     0.0
