*PLANT N OUTPUT FILE

*DSSAT Cropping System Model Ver. 4.7.5.007 -  MAR 01, 2026 21:01:02
@YEAR DOY   DAS   DAP    CNAD    GNAD    VNAD    GN%D    VN%D     NFXC    NUPC    LNAD    SNAD    LN%D    SN%D    SHND   RN%D   NFXD   SNN0C   SNN1C
 2015 103     1     0     0.0     0.0     0.0    0.00    0.00      0.0     0.0     0.0     0.0    0.00    0.00     0.0    0.0    0.0    0.00    0.00
 2015 104     2     1     0.0     0.0     0.0    0.00    0.00      0.0     0.0     0.0     0.0    0.00    0.00     0.0    0.0    0.0    0.00    0.00
 2015 105     3     2     0.0     0.0     0.0    0.00    0.00      0.0     0.0     0.0     0.0    0.00    0.00     0.0    0.0    0.0    0.00    0.00
 2015 106     4     3     0.0     0.0     0.0    0.00    0.00      0.0     0.0     0.0     0.0    0.00    0.00     0.0    0.0    0.0    0.00    0.00
 2015 107     5     4     0.6     0.0     0.6    0.00    3.41      0.2     0.0     0.5     0.1    3.84    2.40     0.0    1.6    0.0    0.00    0.02
 2015 108     6     5     0.7     0.0     0.7    0.00    3.45      0.2     0.1     0.6     0.1    3.85    2.41     0.0    1.6    0.0    0.00    0.03
 2015 109     7     6     0.8     0.0     0.8    0.00    3.48      0.2     0.2     0.7     0.2    3.85    2.41     0.0    1.6    0.0    0.00    0.04
 2015 110     8     7     1.0     0.0     1.0    0.00    3.47      0.2     0.3     0.8     0.2    3.81    2.39     0.0    1.6    0.0    0.00    0.05
 2015 111     9     8     1.1     0.0     1.1    0.00    3.43      0.2     0.4     0.9     0.2    3.78    2.36     0.0    1.6    0.0    0.01    0.07
 2015 112    10     9     1.3     0.0     1.3    0.00    3.46      0.2     0.6     1.1     0.2    3.83    2.42     0.0    1.6    0.0    0.01    0.08
 2015 113    11    10     1.5     0.0     1.5    0.00    3.45      0.4     0.7     1.3     0.3    3.80    2.39     0.0    1.6    0.1    0.01    0.09
 2015 114    12    11     1.8     0.0     1.8    0.00    3.44      0.4     0.9     1.5     0.3    3.78    2.37     0.0    1.6    0.1    0.01    0.09
 2015 115    13    12     2.2     0.0     2.2    0.00    3.44      0.4     1.2     1.8     0.4    3.78    2.36     0.0    1.5    0.0    0.02    0.11
 2015 116    14    13     2.6     0.0     2.6    0.00    3.43      0.7     1.4     2.1     0.4    3.76    2.35     0.0    1.5    0.2    0.02    0.11
 2015 117    15    14     2.9     0.0     2.9    0.00    3.45      0.8     1.7     2.5     0.5    3.79    2.36     0.0    1.6    0.2    0.03    0.12
 2015 118    16    15     3.2     0.0     3.2    0.00    3.24      1.1     1.8     2.7     0.5    3.55    2.22     0.0    1.5    0.2    0.04    0.13
 2015 119    17    16     3.8     0.0     3.8    0.00    3.29      1.2     2.3     3.2     0.6    3.60    2.25     0.0    1.5    0.1    0.05    0.14
 2015 120    18    17     3.8     0.0     3.8    0.00    3.29      1.2     2.3     3.2     0.6    3.60    2.25     0.0    1.5    0.0    0.05    0.15
 2015 121    19    18     4.4     0.0     4.4    0.00    3.29      1.2     3.0     3.7     0.7    3.60    2.25     0.0    1.5    0.0    0.05    0.17
 2015 122    20    19     5.3     0.0     5.3    0.00    3.46      1.2     4.1     4.5     0.8    3.78    2.37     0.0    1.6    0.0    0.05    0.19
 2015 123    21    20     5.9     0.0     5.9    0.00    3.49      1.2     5.1     4.9     0.9    3.82    2.40     0.0    1.6    0.0    0.05    0.21
 2015 124    22    21     6.6     0.0     6.6    0.00    3.46      1.4     5.7     5.6     1.0    3.78    2.37     0.0    1.6    0.2    0.07    0.22
 2015 125    23    22     7.4     0.0     7.4    0.00    3.26      1.7     6.2     6.2     1.2    3.57    2.24     0.0    1.6    0.2    0.09    0.24
 2015 126    24    23     7.9     0.0     7.9    0.00    3.09      2.0     6.5     6.6     1.2    3.38    2.12     0.0    1.5    0.3    0.10    0.25
 2015 127    25    24     8.8     0.0     8.8    0.00    2.95      2.4     7.2     7.3     1.5    3.26    2.01     0.0    1.5    0.3    0.19    0.27
 2015 128    26    25    10.3     0.0    10.3    0.00    2.98      2.5     8.7     8.4     1.9    3.30    2.07     0.0    1.5    0.1    0.21    0.29
 2015 129    27    26    12.4     0.0    12.4    0.00    3.15      2.5    11.0    10.0     2.4    3.49    2.25     0.0    1.5    0.0    0.21    0.31
 2015 130    28    27    13.9     0.0    13.9    0.00    3.31      2.5    13.6    11.1     2.8    3.66    2.41     0.0    1.9    0.0    0.21    0.35
 2015 131    29    28    14.5     0.0    14.5    0.00    3.27      3.0    13.9    11.5     3.0    3.63    2.36     0.0    1.9    0.4    0.32    0.38
 2015 132    30    29    15.9     0.0    15.9    0.00    3.26      3.5    15.0    12.5     3.4    3.65    2.35     0.0    1.8    0.4    0.41    0.41
 2015 133    31    30    17.5     0.0    17.5    0.00    3.27      3.6    16.8    13.7     3.9    3.67    2.35     0.0    1.8    0.1    0.53    0.44
 2015 134    32    31    17.8     0.0    17.8    0.00    3.09      4.2    17.3    13.7     4.0    3.51    2.21     0.0    1.7    0.5    1.11    0.47
 2015 135    33    32    18.8     0.0    18.8    0.00    2.95      4.9    18.0    14.4     4.4    3.38    2.09     0.0    1.6    0.6    1.14    0.51
 2015 136    34    33    20.6     0.0    20.6    0.00    2.98      5.2    19.8    15.6     5.0    3.43    2.11     0.0    1.6    0.2    1.29    0.54
 2015 137    35    34    23.5     0.0    23.5    0.00    3.09      5.2    23.0    17.5     6.0    3.58    2.21     0.0    1.6    0.0    1.45    0.60
 2015 138    36    35    27.0     0.0    27.0    0.00    3.32      5.2    27.2    19.8     7.2    3.85    2.40     0.0    1.7    0.0    1.75    0.67
 2015 139    37    36    28.4     0.0    28.3    0.00    3.33      5.8    29.2    20.6     7.8    3.93    2.38     3.5    1.7    0.6    2.17    0.73
 2015 140    38    37    31.0     0.0    30.5    0.00    3.30      5.8    32.3    21.9     8.6    3.92    2.35     3.5    1.6    0.0    2.23    0.81
 2015 141    39    38    34.0     0.0    32.6    0.00    3.31      5.8    35.7    23.2     9.4    3.95    2.36     3.5    1.6    0.0    2.33    0.89
 2015 142    40    39    35.5     0.0    33.0    0.00    3.19      6.6    36.9    23.3     9.7    3.86    2.24     3.5    1.6    0.7    2.54    0.94
 2015 143    41    40    38.5     0.0    34.4    0.00    3.18      6.6    40.0    24.1    10.3    3.87    2.25     3.5    1.6    0.0    2.59    1.03
 2015 144    42    41    42.0     0.0    35.9    0.00    3.22      6.6    44.2    25.0    10.9    3.92    2.29     3.5    1.6    0.0    2.67    1.13
 2015 145    43    42    45.5     0.1    37.0    3.71    3.26      6.6    48.1    25.6    11.4    3.98    2.31     3.5    1.6    0.0    2.85    1.22
 2015 146    44    43    46.7     0.7    35.9    3.69    3.06      7.3    49.0    24.8    11.1    3.85    2.09     3.4    1.6    0.6    3.14    1.29
 2015 147    45    44    49.2     2.1    34.9    3.69    3.02      7.7    51.6    24.1    10.8    3.81    2.07     3.4    1.6    0.4    3.28    1.35
 2015 148    46    45    51.8     3.8    34.1    3.64    3.00      7.7    54.5    23.5    10.6    3.79    2.05     3.4    1.6    0.0    3.35    1.41
 2015 149    47    46    54.0     5.4    33.3    3.61    2.97      7.7    57.1    23.0    10.3    3.76    2.03     3.4    1.6    0.0    3.58    1.49
 2015 150    48    47    56.2     7.3    32.4    3.60    2.94      7.7    59.8    22.3    10.1    3.73    2.01     3.3    1.6    0.0    3.81    1.56
 2015 151    49    48    57.4     9.7    31.4    3.60    2.90      7.7    61.4    21.6     9.8    3.68    1.98     3.3    1.5    0.0    4.25    1.63
 2015 152    50    49    58.4    12.3    30.2    3.60    2.85      7.7    62.5    20.7     9.5    3.63    1.94     3.2    1.5    0.0    4.36    1.70
 2015 153    51    50    60.5    15.1    28.9    3.61    2.79      8.2    64.7    19.8     9.1    3.57    1.90     3.2    1.5    0.5    4.77    1.75
 2015 154    52    51    62.3    17.9    27.7    3.61    2.74      8.2    67.3    19.0     8.8    3.51    1.86     3.1    1.5    0.0    5.25    1.82
 2015 155    53    52    63.4    20.8    25.7    3.61    2.67      8.2    69.8    17.4     8.3    3.45    1.82     3.1    1.4    0.0    6.61    1.88
 2015 156    54    53    63.0    23.6    23.4    3.58    2.55      8.6    70.5    15.5     7.8    3.35    1.73     3.0    1.4    0.4    8.11    1.93
 2015 157    55    54    64.9    26.8    22.3    3.59    2.48      9.2    72.0    14.8     7.5    3.28    1.68     2.9    1.4    0.5    8.30    1.97
 2015 158    56    55    66.9    30.1    21.3    3.59    2.43      9.2    74.2    14.1     7.2    3.21    1.64     2.8    1.4    0.0    8.43    2.03
 2015 159    57    56    68.8    33.2    20.4    3.59    2.37      9.2    76.3    13.4     6.9    3.15    1.60     2.8    1.3    0.0    8.57    2.09
 2015 160    58    57    69.2    35.4    19.1    3.54    2.25      9.6    76.6    12.5     6.6    3.04    1.52     2.7    1.3    0.4    9.00    2.13
 2015 161    59    58    70.7    38.3    18.2    3.53    2.20     10.2    77.5    11.8     6.3    2.97    1.48     2.6    1.3    0.6    9.08    2.16
 2015 162    60    59    72.5    41.5    17.2    3.54    2.13     10.7    79.0    11.2     6.1    2.89    1.44     2.6    1.3    0.5    9.17    2.20
 2015 163    61    60    72.6    43.2    16.3    3.48    1.98     10.7    79.2    10.5     5.8    2.74    1.31     2.5    1.2    0.0    9.32    2.23
 2015 164    62    61    70.3    45.2    12.5    3.45    1.76     10.7    79.9     7.3     5.1    2.56    1.22     2.4    1.2    0.0   12.33    2.26
 2015 165    63    62    69.3    47.3     9.8    3.43    1.62     10.7    81.0     5.1     4.7    2.43    1.19     2.3    1.2    0.0   14.42    2.29
 2015 166    64    63    68.9    49.2     7.9    3.43    1.50     10.7    82.0     3.6     4.3    2.32    1.16     2.2    1.2    0.0   15.90    2.31
 2015 167    65    64    68.5    50.5     6.6    3.43    1.40     10.7    82.6     2.5     4.0    2.22    1.13     2.2    1.2    0.0   16.94    2.34
 2015 168    66    65    68.2    51.6     5.6    3.44    1.31     10.7    83.0     1.8     3.8    2.13    1.11     2.1    1.2    0.0   17.67    2.39
 2015 169    67    66    67.8    52.3     4.9    3.44    1.23     10.7    83.2     1.3     3.6    2.04    1.08     2.1    1.1    0.0   18.19    2.44
 2015 170    68    67    67.5    52.9     4.3    3.44    1.17     10.7    83.2     0.9     3.4    1.96    1.06     2.0    1.1    0.0   18.56    2.48
 2015 171    69    68    67.3    53.2     4.0    3.44    1.13     10.7    83.2     0.7     3.3    1.91    1.05     2.0    1.1    0.0   18.82    2.53
 2015 172    70    69    67.1    53.4     3.7    3.44    1.11     10.7    83.2     0.5     3.2    1.88    1.04     2.0    1.1    0.0   19.01    2.57

*DSSAT Cropping System Model Ver. 4.7.5.007 -  MAR 01, 2026 21:01:02
@YEAR DOY   DAS   DAP    CNAD    GNAD    VNAD    GN%D    VN%D     NFXC    NUPC    LNAD    SNAD    LN%D    SN%D    SHND   RN%D   NFXD   SNN0C   SNN1C
 2015 126     1     0     0.0     0.0     0.0    0.00    0.00      0.0     0.0     0.0     0.0    0.00    0.00     0.0    0.0    0.0    0.00    0.00
 2015 127     2     1     0.0     0.0     0.0    0.00    0.00      0.0     0.0     0.0     0.0    0.00    0.00     0.0    0.0    0.0    0.00    0.00
 2015 128     3     2     0.0     0.0     0.0    0.00    0.00      0.0     0.0     0.0     0.0    0.00    0.00     0.0    0.0    0.0    0.00    0.00
 2015 129     4     3     0.0     0.0     0.0    0.00    0.00      0.0     0.0     0.0     0.0    0.00    0.00     0.0    0.0    0.0    0.00    0.00
 2015 130     5     4     0.6     0.0     0.6    0.00    3.41      0.2     0.0     0.5     0.1    3.84    2.40     0.0    1.6    0.0    0.00    0.01
 2015 131     6     5     0.7     0.0     0.7    0.00    3.43      0.2     0.0     0.5     0.1    3.85    2.41     0.0    1.6    0.0    0.00    0.03
 2015 132     7     6     0.8     0.0     0.8    0.00    3.46      0.2     0.1     0.6     0.1    3.85    2.41     0.0    1.6    0.0    0.00    0.04
 2015 133     8     7     0.9     0.0     0.9    0.00    3.48      0.2     0.2     0.7     0.2    3.85    2.41     0.0    1.6    0.0    0.00    0.05
 2015 134     9     8     1.0     0.0     1.0    0.00    3.50      0.2     0.4     0.8     0.2    3.85    2.42     0.0    1.6    0.0    0.00    0.06
 2015 135    10     9     1.1     0.0     1.1    0.00    3.48      0.3     0.4     0.9     0.2    3.82    2.39     0.0    1.6    0.0    0.00    0.07
 2015 136    11    10     1.2     0.0     1.2    0.00    3.48      0.3     0.6     1.0     0.2    3.84    2.41     0.0    1.6    0.0    0.00    0.08
 2015 137    12    11     1.4     0.0     1.4    0.00    3.46      0.3     0.8     1.1     0.3    3.84    2.41     0.0    1.6    0.0    0.00    0.09
 2015 138    13    12     1.6     0.0     1.6    0.00    3.48      0.3     1.0     1.3     0.3    3.85    2.42     0.0    1.6    0.0    0.00    0.10
 2015 139    14    13     1.9     0.0     1.9    0.00    3.46      0.3     1.2     1.6     0.3    3.81    2.39     0.0    1.6    0.1    0.01    0.11
 2015 140    15    14     2.2     0.0     2.2    0.00    3.45      0.4     1.5     1.8     0.4    3.79    2.37     0.0    1.6    0.0    0.01    0.12
 2015 141    16    15     2.6     0.0     2.6    0.00    3.50      0.4     1.9     2.2     0.4    3.84    2.40     0.0    1.6    0.0    0.01    0.13
 2015 142    17    16     2.9     0.0     2.9    0.00    3.36      0.6     2.1     2.4     0.5    3.69    2.31     0.0    1.5    0.2    0.02    0.14
 2015 143    18    17     3.4     0.0     3.4    0.00    3.36      0.7     2.4     2.8     0.5    3.68    2.30     0.0    1.5    0.1    0.03    0.14
 2015 144    19    18     4.0     0.0     4.0    0.00    3.47      0.7     3.2     3.4     0.6    3.79    2.38     0.0    1.6    0.0    0.03    0.16
 2015 145    20    19     4.4     0.0     4.4    0.00    3.49      0.7     3.9     3.7     0.7    3.82    2.40     0.0    1.6    0.0    0.03    0.17
 2015 146    21    20     4.6     0.0     4.6    0.00    3.51      0.7     4.4     3.9     0.7    3.83    2.41     0.0    1.6    0.0    0.03    0.19
 2015 147    22    21     5.0     0.0     5.0    0.00    3.48      0.9     4.8     4.2     0.8    3.80    2.38     0.0    1.6    0.2    0.04    0.21
 2015 148    23    22     5.8     0.0     5.8    0.00    3.51      0.9     5.7     4.9     0.9    3.83    2.40     0.0    1.6    0.0    0.04    0.24
 2015 149    24    23     6.3     0.0     6.3    0.00    3.42      1.2     6.2     5.3     1.0    3.73    2.34     0.0    1.6    0.2    0.19    0.25
 2015 150    25    24     7.0     0.0     7.0    0.00    3.50      1.2     7.3     5.9     1.1    3.81    2.40     0.0    1.6    0.0    0.55    0.27
 2015 151    26    25     8.1     0.0     8.1    0.00    3.52      1.2     8.5     6.8     1.2    3.83    2.41     0.0    1.6    0.0    0.65    0.30
 2015 152    27    26     9.0     0.0     9.0    0.00    3.43      1.5     9.3     7.5     1.5    3.77    2.35     0.0    1.6    0.3    0.67    0.31
 2015 153    28    27    10.4     0.0    10.4    0.00    3.44      1.5    10.8     8.6     1.8    3.79    2.38     0.0    1.6    0.0    0.67    0.34
 2015 154    29    28    12.0     0.0    12.0    0.00    3.45      1.5    12.6     9.8     2.2    3.83    2.41     0.0    1.6    0.0    0.67    0.36
 2015 155    30    29    13.0     0.0    13.0    0.00    3.45      1.5    14.3    10.5     2.5    3.84    2.42     0.0    1.6    0.0    0.67    0.39
 2015 156    31    30    13.5     0.0    13.5    0.00    3.42      1.8    15.2    10.9     2.6    3.80    2.40     0.0    1.6    0.2    0.70    0.42
 2015 157    32    31    15.4     0.0    15.4    0.00    3.43      1.8    17.4    12.4     3.1    3.83    2.42     0.0    1.6    0.0    0.70    0.46
 2015 158    33    32    17.5     0.0    17.5    0.00    3.46      1.8    19.7    13.9     3.6    3.89    2.44     0.0    1.6    0.0    0.79    0.50
 2015 159    34    33    19.2     0.0    19.2    0.00    3.50      1.8    22.0    15.1     4.1    3.96    2.47     0.0    1.6    0.0    1.14    0.54
 2015 160    35    34    19.5     0.0    19.5    0.00    3.46      2.2    23.1    15.2     4.3    3.94    2.43     0.0    1.6    0.3    1.78    0.58
 2015 161    36    35    21.5     0.0    21.5    0.00    3.44      2.2    25.5    16.6     4.9    3.93    2.42     0.0    1.6    0.0    1.78    0.63
 2015 162    37    36    23.8     0.0    23.8    0.00    3.46      2.2    28.2    18.2     5.6    3.99    2.42     0.0    1.6    0.0    1.94    0.70
 2015 163    38    37    25.1     0.0    25.0    0.00    3.36      2.8    29.5    18.9     6.1    3.93    2.31     3.5    1.5    0.4    2.25    0.76
 2015 164    39    38    27.3     0.0    26.8    0.00    3.41      2.8    32.8    20.0     6.8    4.02    2.35     3.5    1.6    0.0    2.73    0.83
 2015 165    40    39    29.9     0.0    28.7    0.00    3.42      2.8    36.0    21.2     7.5    4.07    2.36     3.5    1.6    0.0    2.87    0.90
 2015 166    41    40    32.6     0.0    30.4    0.00    3.44      2.8    39.2    22.2     8.1    4.12    2.37     3.5    1.6    0.0    3.00    0.98
 2015 167    42    41    33.8     0.0    30.4    0.00    3.27      3.3    40.1    22.1     8.2    4.00    2.19     3.5    1.6    0.5    3.18    1.04
 2015 168    43    42    36.4     0.0    31.3    0.00    3.26      3.3    42.9    22.7     8.7    4.00    2.20     3.5    1.6    0.0    3.26    1.12
 2015 169    44    43    39.5     0.1    32.5    3.64    3.31      3.3    46.6    23.3     9.1    4.05    2.26     3.5    1.6    0.0    3.41    1.20
 2015 170    45    44    40.7     0.6    31.6    3.62    3.14      4.0    47.4    22.7     8.9    3.94    2.07     3.5    1.6    0.5    3.68    1.25
 2015 171    46    45    42.6     1.3    31.0    3.58    3.11      4.1    49.8    22.2     8.7    3.91    2.05     3.4    1.5    0.1    3.87    1.30
 2015 172    47    46    44.9     2.4    30.3    3.58    3.09      4.1    52.4    21.7     8.6    3.88    2.03     3.4    1.5    0.1    4.07    1.34
 2015 173    48    47    46.9     3.7    29.5    3.57    3.06      4.1    54.8    21.2     8.4    3.85    2.01     3.4    1.5    0.0    4.32    1.39
 2015 174    49    48    47.9     5.5    28.7    3.58    2.87      4.9    55.4    20.6     8.2    3.71    1.83     3.3    1.5    0.6    4.65    1.43
 2015 175    50    49    49.4     7.6    27.9    3.58    2.84      5.3    57.1    19.9     7.9    3.67    1.81     3.3    1.5    0.5    5.10    1.47
 2015 176    51    50    51.3     9.7    27.0    3.57    2.80      5.4    59.5    19.3     7.7    3.63    1.78     3.3    1.5    0.0    5.41    1.53
 2015 177    52    51    52.7    11.9    26.2    3.57    2.69      6.1    60.2    18.7     7.5    3.54    1.69     3.2    1.4    0.7    5.49    1.57
 2015 178    53    52    54.4    14.0    25.3    3.57    2.66      6.5    61.9    18.0     7.3    3.50    1.67     3.2    1.4    0.4    5.77    1.60
 2015 179    54    53    55.8    16.2    24.5    3.56    2.62      6.6    63.8    17.4     7.1    3.46    1.64     3.1    1.4    0.1    6.19    1.64
 2015 180    55    54    57.4    18.6    23.6    3.56    2.58      6.7    65.9    16.8     6.8    3.41    1.62     3.1    1.4    0.1    6.61    1.67
 2015 181    56    55    58.2    21.0    22.7    3.56    2.45      7.5    66.3    16.1     6.6    3.29    1.50     3.0    1.4    0.8    6.99    1.71
 2015 182    57    56    59.9    23.5    21.8    3.56    2.40      8.3    67.4    15.4     6.3    3.23    1.47     3.0    1.3    0.8    7.26    1.74
 2015 183    58    57    61.5    26.2    20.8    3.56    2.35      8.8    69.0    14.7     6.1    3.18    1.45     2.9    1.3    0.4    7.61    1.78
 2015 184    59    58    62.8    28.9    19.9    3.57    2.25      9.7    69.6    14.1     5.9    3.07    1.37     2.8    1.3    0.9    7.75    1.81
 2015 185    60    59    64.5    31.6    19.1    3.57    2.21     10.5    70.8    13.4     5.7    3.02    1.35     2.8    1.3    0.8    8.03    1.84
 2015 186    61    60    66.1    34.2    18.3    3.57    2.17     10.7    72.3    12.9     5.4    2.97    1.33     2.7    1.3    0.3    8.18    1.87
 2015 187    62    61    67.6    36.8    17.6    3.57    2.13     10.8    73.9    12.3     5.3    2.91    1.31     2.7    1.3    0.1    8.25    1.90
 2015 188    63    62    68.5    38.9    16.8    3.57    2.09     10.8    74.8    11.8     5.1    2.86    1.28     2.6    1.2    0.0    8.32    1.95
 2015 189    64    63    68.7    40.0    16.2    3.56    2.06     10.8    75.0    11.3     4.9    2.82    1.27     2.6    1.2    0.0    8.38    2.00
 2015 190    65    64    70.1    42.5    15.5    3.56    2.00     10.8    76.5    10.8     4.7    2.74    1.24     2.5    1.2    0.0    8.45    2.03
 2015 191    66    65    67.8    44.4    11.8    3.53    1.78     10.8    77.2     7.6     4.2    2.57    1.14     2.4    1.2    0.0   11.51    2.06
 2015 192    67    66    66.6    46.3     9.1    3.50    1.63     10.8    78.1     5.3     3.8    2.44    1.11     2.3    1.2    0.0   13.66    2.09
 2015 193    68    67    66.1    48.0     7.2    3.50    1.51     10.8    79.2     3.8     3.5    2.34    1.09     2.3    1.2    0.0   15.17    2.15
 2015 194    69    68    65.3    48.9     5.9    3.48    1.37     10.8    79.3     2.7     3.2    2.22    1.04     2.2    1.1    0.0   16.24    2.17
 2015 195    70    69    65.0    49.9     4.9    3.48    1.28     10.8    79.8     1.9     3.0    2.13    1.02     2.2    1.1    0.0   17.00    2.23
 2015 196    71    70    64.7    50.7     4.2    3.48    1.20     10.8    80.1     1.3     2.8    2.05    1.00     2.1    1.1    0.0   17.53    2.28
 2015 197    72    71    64.5    51.2     3.7    3.48    1.14     10.8    80.2     1.0     2.7    1.98    0.99     2.1    1.1    0.0   17.92    2.33
 2015 198    73    72    64.2    51.6     3.3    3.48    1.09     10.8    80.2     0.7     2.6    1.92    0.98     2.0    1.1    0.0   18.19    2.38
 2015 199    74    73    64.1    51.8     3.0    3.48    1.05     10.8    80.2     0.5     2.5    1.88    0.97     2.0    1.1    0.0   18.39    2.43

*DSSAT Cropping System Model Ver. 4.7.5.007 -  MAR 01, 2026 21:01:02
@YEAR DOY   DAS   DAP    CNAD    GNAD    VNAD    GN%D    VN%D     NFXC    NUPC    LNAD    SNAD    LN%D    SN%D    SHND   RN%D   NFXD   SNN0C   SNN1C
 2015 148     1     0     0.0     0.0     0.0    0.00    0.00      0.0     0.0     0.0     0.0    0.00    0.00     0.0    0.0    0.0    0.00    0.00
 2015 149     2     1     0.0     0.0     0.0    0.00    0.00      0.0     0.0     0.0     0.0    0.00    0.00     0.0    0.0    0.0    0.00    0.00
 2015 150     3     2     0.0     0.0     0.0    0.00    0.00      0.0     0.0     0.0     0.0    0.00    0.00     0.0    0.0    0.0    0.00    0.00
 2015 151     4     3     0.0     0.0     0.0    0.00    0.00      0.0     0.0     0.0     0.0    0.00    0.00     0.0    0.0    0.0    0.00    0.00
 2015 152     5     4     0.6     0.0     0.6    0.00    3.41      0.2     0.0     0.5     0.1    3.84    2.40     0.0    1.6    0.0    0.00    0.01
 2015 153     6     5     0.7     0.0     0.7    0.00    3.44      0.2     0.1     0.6     0.1    3.85    2.41     0.0    1.6    0.0    0.00    0.03
 2015 154     7     6     0.8     0.0     0.8    0.00    3.47      0.2     0.2     0.7     0.1    3.85    2.41     0.0    1.6    0.0    0.00    0.04
 2015 155     8     7     0.9     0.0     0.9    0.00    3.45      0.2     0.3     0.8     0.2    3.80    2.38     0.0    1.6    0.0    0.00    0.05
 2015 156     9     8     1.1     0.0     1.1    0.00    3.50      0.2     0.5     0.9     0.2    3.84    2.40     0.0    1.6    0.0    0.00    0.06
 2015 157    10     9     1.2     0.0     1.2    0.00    3.50      0.2     0.6     1.0     0.2    3.84    2.40     0.0    1.6    0.0    0.00    0.07
 2015 158    11    10     1.4     0.0     1.4    0.00    3.48      0.2     0.8     1.1     0.2    3.85    2.41     0.0    1.6    0.0    0.00    0.09
 2015 159    12    11     1.6     0.0     1.6    0.00    3.49      0.2     1.1     1.3     0.3    3.85    2.41     0.0    1.6    0.0    0.00    0.10
 2015 160    13    12     1.8     0.0     1.8    0.00    3.47      0.3     1.2     1.5     0.3    3.82    2.39     0.0    1.6    0.1    0.00    0.11
 2015 161    14    13     2.0     0.0     2.0    0.00    3.50      0.3     1.5     1.7     0.3    3.84    2.40     0.0    1.6    0.0    0.00    0.12
 2015 162    15    14     2.4     0.0     2.4    0.00    3.51      0.4     1.8     2.0     0.4    3.85    2.41     0.0    1.6    0.0    0.00    0.13
 2015 163    16    15     2.8     0.0     2.8    0.00    3.52      0.4     2.3     2.4     0.4    3.85    2.41     0.0    1.6    0.0    0.00    0.15
 2015 164    17    16     3.0     0.0     3.0    0.00    3.53      0.4     2.7     2.6     0.5    3.85    2.41     0.0    1.6    0.0    0.02    0.16
 2015 165    18    17     3.2     0.0     3.2    0.00    3.50      0.4     2.9     2.7     0.5    3.82    2.39     0.0    1.6    0.1    0.03    0.17
 2015 166    19    18     3.7     0.0     3.7    0.00    3.53      0.4     3.5     3.1     0.6    3.84    2.41     0.0    1.6    0.0    0.03    0.19
 2015 167    20    19     4.3     0.0     4.3    0.00    3.53      0.4     4.2     3.7     0.6    3.85    2.41     0.0    1.6    0.0    0.03    0.21
 2015 168    21    20     5.0     0.0     5.0    0.00    3.54      0.5     4.9     4.2     0.7    3.85    2.41     0.0    1.6    0.0    0.09    0.22
 2015 169    22    21     5.6     0.0     5.6    0.00    3.54      0.5     5.8     4.7     0.8    3.85    2.42     0.0    1.6    0.0    0.29    0.24
 2015 170    23    22     6.1     0.0     6.1    0.00    3.54      0.5     6.8     5.2     0.9    3.86    2.42     0.0    1.6    0.0    0.29    0.26
 2015 171    24    23     6.4     0.0     6.4    0.00    3.55      0.5     7.4     5.4     0.9    3.86    2.42     0.0    1.6    0.0    0.29    0.28
 2015 172    25    24     6.5     0.0     6.5    0.00    3.55      0.5     7.9     5.6     1.0    3.86    2.42     0.0    1.6    0.0    0.29    0.30
 2015 173    26    25     6.9     0.0     6.9    0.00    3.53      0.5     8.7     5.9     1.0    3.84    2.41     0.0    1.6    0.0    0.30    0.32
 2015 174    27    26     8.0     0.0     8.0    0.00    3.54      0.5     9.9     6.8     1.1    3.84    2.41     0.0    1.6    0.0    0.33    0.35
 2015 175    28    27     8.6     0.0     8.6    0.00    3.53      0.5    11.0     7.3     1.3    3.84    2.41     0.0    1.6    0.0    0.77    0.37
 2015 176    29    28     9.2     0.0     9.2    0.00    3.51      0.5    12.2     7.8     1.5    3.84    2.41     0.0    1.6    0.0    1.36    0.39
 2015 177    30    29     9.6     0.0     9.6    0.00    3.28      0.7    12.8     8.0     1.6    3.62    2.23     0.0    1.6    0.2    1.62    0.41
 2015 178    31    30    11.0     0.0    11.0    0.00    3.36      0.7    14.3     9.1     1.9    3.71    2.32     0.0    1.6    0.0    1.62    0.44
 2015 179    32    31    12.6     0.0    12.6    0.00    3.44      0.7    16.1    10.3     2.3    3.80    2.41     0.0    1.6    0.0    1.62    0.46
 2015 180    33    32    14.3     0.0    14.3    0.00    3.45      0.7    17.9    11.6     2.7    3.83    2.43     0.0    1.6    0.0    1.62    0.49
 2015 181    34    33    14.9     0.0    14.9    0.00    3.25      1.0    18.5    12.0     2.9    3.62    2.28     0.0    1.5    0.3    1.65    0.51
 2015 182    35    34    16.7     0.0    16.7    0.00    3.25      1.0    20.4    13.3     3.4    3.64    2.29     0.0    1.5    0.0    1.67    0.54
 2015 183    36    35    19.2     0.0    19.2    0.00    3.39      1.0    23.6    15.1     4.1    3.80    2.43     0.0    1.6    0.0    1.72    0.58
 2015 184    37    36    20.5     0.0    20.5    0.00    3.32      1.4    24.9    15.9     4.5    3.77    2.34     0.0    1.5    0.3    1.98    0.61
 2015 185    38    37    22.7     0.0    22.7    0.00    3.40      1.4    27.9    17.5     5.2    3.88    2.41     0.0    1.6    0.0    2.13    0.66
 2015 186    39    38    24.6     0.0    24.6    0.00    3.45      1.4    30.3    18.8     5.8    3.97    2.43     3.5    1.6    0.0    2.35    0.71
 2015 187    40    39    26.4     0.0    26.2    0.00    3.49      1.4    32.6    19.8     6.4    4.06    2.44     3.5    1.6    0.0    2.58    0.76
 2015 188    41    40    27.7     0.0    27.1    0.00    3.54      1.4    34.2    20.4     6.7    4.14    2.46     3.5    1.6    0.0    2.80    0.81
 2015 189    42    41    28.3     0.0    27.1    0.00    3.58      1.4    35.0    20.4     6.7    4.20    2.48     3.5    1.6    0.0    2.91    0.85
 2015 190    43    42    30.4     0.0    28.7    0.00    3.55      1.4    37.5    21.4     7.3    4.18    2.46     3.5    1.6    0.0    2.94    0.90
 2015 191    44    43    31.2     0.0    28.6    0.00    3.43      1.7    38.5    21.3     7.4    4.10    2.33     3.5    1.5    0.2    3.09    0.94
 2015 192    45    44    34.0     0.0    30.3    0.00    3.42      1.7    41.7    22.3     8.0    4.10    2.34     3.5    1.5    0.0    3.11    1.00
 2015 193    46    45    36.4     0.0    31.5    3.60    3.43      1.7    44.7    23.0     8.5    4.14    2.35     3.5    1.5    0.0    3.39    1.06
 2015 194    47    46    37.4     0.2    31.0    3.61    3.24      2.1    45.8    22.6     8.4    4.01    2.14     3.5    1.5    0.3    3.72    1.11
 2015 195    48    47    39.8     0.6    31.4    3.61    3.25      2.1    48.6    22.7     8.7    4.02    2.17     3.5    1.5    0.0    4.19    1.17
 2015 196    49    48    42.8     1.3    31.9    3.60    3.29      2.1    51.9    22.9     8.9    4.06    2.21     3.5    1.5    0.0    4.38    1.23
 2015 197    50    49    44.9     2.1    31.2    3.60    3.26      2.1    54.4    22.4     8.8    4.03    2.19     3.4    1.5    0.0    4.68    1.29
 2015 198    51    50    46.0     3.3    30.5    3.59    3.08      2.4    55.4    21.9     8.6    3.89    2.01     3.4    1.5    0.3    4.95    1.33
 2015 199    52    51    47.9     4.6    29.7    3.58    3.05      2.4    57.8    21.3     8.4    3.86    1.99     3.4    1.5    0.0    5.16    1.38
 2015 200    53    52    49.9     6.3    28.8    3.58    3.02      2.4    60.2    20.7     8.2    3.83    1.97     3.3    1.5    0.0    5.45    1.44
 2015 201    54    53    52.1     8.3    27.9    3.59    2.99      2.4    62.8    20.0     7.9    3.80    1.94     3.3    1.5    0.0    5.69    1.49
 2015 202    55    54    53.9    10.6    27.0    3.59    2.95      2.4    65.2    19.3     7.7    3.76    1.92     3.3    1.4    0.0    6.08    1.55
 2015 203    56    55    54.6    13.2    25.7    3.60    2.89      2.4    66.0    18.4     7.3    3.69    1.87     3.2    1.4    0.0    6.23    1.60
 2015 204    57    56    55.2    15.9    24.3    3.62    2.82      2.4    66.7    17.4     7.0    3.62    1.82     3.1    1.4    0.0    6.36    1.65
 2015 205    58    57    57.0    18.4    23.3    3.62    2.76      2.7    68.5    16.6     6.7    3.55    1.78     3.0    1.4    0.2    6.65    1.69
 2015 206    59    58    58.7    21.2    22.2    3.62    2.70      2.7    70.7    15.8     6.4    3.49    1.74     3.0    1.3    0.0    7.06    1.74
 2015 207    60    59    59.1    24.0    19.9    3.63    2.62      2.7    72.9    13.9     6.0    3.42    1.70     2.9    1.3    0.0    8.71    1.79
 2015 208    61    60    59.5    26.9    18.0    3.63    2.54      2.7    74.6    12.4     5.6    3.34    1.66     2.8    1.3    0.0    9.98    1.83
 2015 209    62    61    60.1    28.8    17.1    3.57    2.45      2.9    75.1    11.7     5.4    3.25    1.59     2.8    1.3    0.2   10.06    1.87
 2015 210    63    62    61.5    31.6    16.2    3.56    2.35      3.2    76.2    11.1     5.1    3.15    1.52     2.7    1.3    0.2   10.14    1.90
 2015 211    64    63    63.1    34.6    15.3    3.57    2.28      3.2    78.0    10.5     4.9    3.07    1.48     2.6    1.2    0.0   10.28    1.94
 2015 212    65    64    64.6    37.5    14.4    3.58    2.21      3.2    79.7     9.7     4.6    2.99    1.44     2.5    1.2    0.0   10.53    1.98
 2015 213    66    65    62.3    39.2    10.9    3.52    1.97      3.2    80.1     6.8     4.1    2.78    1.33     2.4    1.2    0.0   13.31    2.01
 2015 214    67    66    61.4    41.2     8.4    3.51    1.81      3.2    81.2     4.8     3.7    2.65    1.29     2.4    1.2    0.0   15.25    2.03
 2015 215    68    67    60.9    42.9     6.7    3.52    1.67      3.2    82.1     3.3     3.4    2.53    1.25     2.3    1.2    0.0   16.61    2.07
 2015 216    69    68    60.3    43.9     5.4    3.50    1.54      3.2    82.4     2.3     3.1    2.40    1.21     2.2    1.2    0.0   17.56    2.10
 2015 217    70    69    60.0    44.9     4.5    3.50    1.43      3.2    82.7     1.6     2.9    2.28    1.18     2.2    1.1    0.0   18.24    2.13
 2015 218    71    70    59.7    45.7     3.9    3.51    1.34      3.2    82.9     1.2     2.7    2.18    1.15     2.1    1.1    0.0   18.71    2.17
 2015 219    72    71    59.5    46.2     3.4    3.51    1.26      3.2    82.9     0.8     2.6    2.08    1.12     2.1    1.1    0.0   19.04    2.20
 2015 220    73    72    59.2    46.5     3.1    3.51    1.21      3.2    82.9     0.6     2.5    2.02    1.10     2.0    1.1    0.0   19.28    2.23
 2015 221    74    73    59.1    46.7     2.8    3.51    1.18      3.2    82.9     0.4     2.4    1.99    1.10     2.0    1.1    0.0   19.45    2.26

*DSSAT Cropping System Model Ver. 4.7.5.007 -  MAR 01, 2026 21:01:02
@YEAR DOY   DAS   DAP    CNAD    GNAD    VNAD    GN%D    VN%D     NFXC    NUPC    LNAD    SNAD    LN%D    SN%D    SHND   RN%D   NFXD   SNN0C   SNN1C
 2015 161     1     0     0.0     0.0     0.0    0.00    0.00      0.0     0.0     0.0     0.0    0.00    0.00     0.0    0.0    0.0    0.00    0.00
 2015 162     2     1     0.0     0.0     0.0    0.00    0.00      0.0     0.0     0.0     0.0    0.00    0.00     0.0    0.0    0.0    0.00    0.00
 2015 163     3     2     0.0     0.0     0.0    0.00    0.00      0.0     0.0     0.0     0.0    0.00    0.00     0.0    0.0    0.0    0.00    0.00
 2015 164     4     3     0.0     0.0     0.0    0.00    0.00      0.0     0.0     0.0     0.0    0.00    0.00     0.0    0.0    0.0    0.00    0.00
 2015 165     5     4     0.6     0.0     0.6    0.00    3.41      0.2     0.0     0.5     0.1    3.84    2.40     0.0    1.6    0.0    0.00    0.01
 2015 166     6     5     0.7     0.0     0.7    0.00    3.44      0.2     0.1     0.6     0.1    3.85    2.41     0.0    1.6    0.0    0.00    0.03
 2015 167     7     6     0.8     0.0     0.8    0.00    3.47      0.2     0.2     0.7     0.1    3.85    2.41     0.0    1.6    0.0    0.00    0.04
 2015 168     8     7     0.9     0.0     0.9    0.00    3.50      0.2     0.3     0.8     0.2    3.85    2.41     0.0    1.6    0.0    0.00    0.05
 2015 169     9     8     1.1     0.0     1.1    0.00    3.51      0.2     0.5     0.9     0.2    3.85    2.42     0.0    1.6    0.0    0.00    0.06
 2015 170    10     9     1.2     0.0     1.2    0.00    3.47      0.3     0.6     1.0     0.2    3.82    2.39     0.0    1.6    0.0    0.00    0.07
 2015 171    11    10     1.3     0.0     1.3    0.00    3.47      0.3     0.7     1.1     0.2    3.84    2.41     0.0    1.6    0.0    0.00    0.08
 2015 172    12    11     1.5     0.0     1.5    0.00    3.48      0.3     0.9     1.3     0.3    3.84    2.41     0.0    1.6    0.0    0.00    0.09
 2015 173    13    12     1.8     0.0     1.8    0.00    3.49      0.3     1.2     1.5     0.3    3.85    2.42     0.0    1.6    0.0    0.00    0.10
 2015 174    14    13     2.0     0.0     2.0    0.00    3.50      0.3     1.5     1.7     0.3    3.85    2.42     0.0    1.6    0.0    0.00    0.12
 2015 175    15    14     2.3     0.0     2.3    0.00    3.48      0.4     1.6     1.9     0.4    3.82    2.40     0.0    1.6    0.2    0.01    0.12
 2015 176    16    15     2.6     0.0     2.6    0.00    3.44      0.4     1.9     2.2     0.4    3.77    2.37     0.0    1.6    0.0    0.01    0.13
 2015 177    17    16     2.9     0.0     2.9    0.00    3.43      0.6     2.0     2.5     0.5    3.76    2.35     0.0    1.6    0.2    0.02    0.14
 2015 178    18    17     3.3     0.0     3.3    0.00    3.42      0.7     2.4     2.8     0.5    3.74    2.34     0.0    1.5    0.0    0.02    0.15
 2015 179    19    18     3.8     0.0     3.8    0.00    3.50      0.7     3.0     3.2     0.6    3.83    2.40     0.0    1.6    0.0    0.02    0.16
 2015 180    20    19     4.2     0.0     4.2    0.00    3.51      0.7     3.7     3.5     0.7    3.84    2.41     0.0    1.6    0.0    0.02    0.17
 2015 181    21    20     4.5     0.0     4.5    0.00    3.48      0.8     3.9     3.8     0.7    3.80    2.38     0.0    1.6    0.1    0.03    0.18
 2015 182    22    21     5.1     0.0     5.1    0.00    3.46      0.8     4.6     4.3     0.8    3.78    2.37     0.0    1.6    0.0    0.04    0.20
 2015 183    23    22     5.5     0.0     5.5    0.00    3.26      1.1     4.8     4.7     0.9    3.57    2.23     0.0    1.5    0.2    0.06    0.21
 2015 184    24    23     6.3     0.0     6.3    0.00    3.27      1.2     5.6     5.4     1.0    3.57    2.23     0.0    1.5    0.1    0.08    0.22
 2015 185    25    24     7.6     0.0     7.6    0.00    3.47      1.2     7.0     6.4     1.2    3.79    2.39     0.0    1.5    0.0    0.16    0.24
 2015 186    26    25     8.7     0.0     8.7    0.00    3.51      1.2     8.2     7.4     1.4    3.83    2.42     0.0    1.6    0.0    0.16    0.26
 2015 187    27    26     9.2     0.0     9.2    0.00    3.34      1.5     8.6     7.7     1.5    3.68    2.27     0.0    1.5    0.2    0.18    0.27
 2015 188    28    27    10.1     0.0    10.1    0.00    3.36      1.5     9.5     8.3     1.7    3.71    2.30     0.0    1.5    0.0    0.18    0.29
 2015 189    29    28    10.7     0.0    10.7    0.00    3.46      1.5    10.3     8.8     1.9    3.81    2.42     0.0    1.5    0.0    0.18    0.31
 2015 190    30    29    12.1     0.0    12.1    0.00    3.47      1.5    11.8     9.8     2.2    3.84    2.44     0.0    1.6    0.0    0.18    0.33
 2015 191    31    30    12.6     0.0    12.6    0.00    3.23      1.8    12.2    10.2     2.4    3.59    2.26     0.0    1.5    0.3    0.23    0.35
 2015 192    32    31    14.2     0.0    14.2    0.00    3.23      2.0    13.7    11.3     2.8    3.62    2.27     0.0    1.5    0.2    0.30    0.37
 2015 193    33    32    16.5     0.0    16.5    0.00    3.41      2.1    16.4    13.0     3.5    3.81    2.44     0.0    1.5    0.0    0.37    0.39
 2015 194    34    33    17.4     0.0    17.4    0.00    3.39      2.4    17.5    13.6     3.8    3.81    2.40     0.0    1.5    0.3    0.55    0.42
 2015 195    35    34    19.5     0.0    19.5    0.00    3.44      2.5    20.1    15.2     4.4    3.89    2.45     0.0    1.5    0.0    0.64    0.45
 2015 196    36    35    21.7     0.0    21.7    0.00    3.50      2.5    22.6    16.6     5.0    3.99    2.49     0.0    1.5    0.0    0.82    0.48
 2015 197    37    36    22.9     0.0    22.9    0.00    3.51      2.8    24.5    17.4     5.5    4.03    2.48     0.0    1.5    0.3    1.03    0.52
 2015 198    38    37    25.1     0.0    25.1    0.00    3.52      2.8    27.2    18.9     6.2    4.08    2.49     0.0    1.5    0.0    1.15    0.56
 2015 199    39    38    27.2     0.0    27.2    0.00    3.56      2.8    29.9    20.3     6.9    4.16    2.50     0.0    1.5    0.0    1.38    0.61
 2015 200    40    39    29.1     0.0    29.1    0.00    3.59      2.8    32.7    21.5     7.6    4.24    2.50     0.0    1.6    0.0    1.60    0.67
 2015 201    41    40    30.2     0.0    29.9    0.00    3.62      2.8    35.2    22.0     7.9    4.30    2.51     3.5    1.6    0.0    1.79    0.74
 2015 202    42    41    32.7     0.0    31.9    0.00    3.60      2.8    38.1    23.3     8.6    4.32    2.49     3.5    1.6    0.0    1.91    0.81
 2015 203    43    42    35.5     0.0    33.9    0.00    3.59      2.8    41.4    24.5     9.4    4.33    2.47     3.5    1.6    0.0    2.04    0.89
 2015 204    44    43    37.1     0.0    34.4    0.00    3.51      3.2    43.1    24.7     9.7    4.28    2.40     3.5    1.6    0.4    2.25    0.96
 2015 205    45    44    39.1     0.0    34.9    0.00    3.48      3.2    46.7    24.8    10.1    4.27    2.39     3.5    1.6    0.0    3.14    1.04
 2015 206    46    45    42.1     0.0    36.1    0.00    3.46      3.2    50.1    25.5    10.6    4.26    2.38     3.5    1.6    0.0    3.25    1.12
 2015 207    47    46    45.1     0.3    36.8    3.67    3.43      3.2    53.4    25.9    10.9    4.24    2.37     3.5    1.6    0.0    3.37    1.21
 2015 208    48    47    47.2     0.8    36.1    3.66    3.35      3.2    55.8    25.4    10.8    4.17    2.29     3.5    1.5    0.0    3.56    1.29
 2015 209    49    48    49.2     1.7    35.4    3.64    3.33      3.2    58.3    24.8    10.6    4.15    2.27     3.5    1.5    0.0    3.78    1.36
 2015 210    50    49    51.8     2.9    34.6    3.64    3.30      3.2    61.3    24.3    10.4    4.12    2.25     3.4    1.5    0.0    4.07    1.44
 2015 211    51    50    54.3     4.6    33.6    3.64    3.26      3.2    64.3    23.6    10.1    4.08    2.22     3.4    1.5    0.0    4.32    1.52
 2015 212    52    51    55.6     6.6    32.6    3.64    3.11      3.5    65.5    22.8     9.8    3.96    2.07     3.3    1.5    0.2    4.56    1.58
 2015 213    53    52    57.7     9.0    31.6    3.64    3.07      3.7    68.2    22.0     9.5    3.92    2.04     3.3    1.5    0.2    4.96    1.63
 2015 214    54    53    59.7    11.6    30.5    3.63    3.02      3.7    70.9    21.3     9.2    3.88    2.01     3.3    1.4    0.0    5.54    1.70
 2015 215    55    54    61.9    14.6    29.4    3.63    2.98      3.7    73.5    20.5     8.9    3.83    1.97     3.2    1.4    0.0    5.78    1.76
 2015 216    56    55    62.6    17.4    27.8    3.59    2.77      3.9    74.3    19.3     8.6    3.67    1.78     3.1    1.4    0.3    6.27    1.82
 2015 217    57    56    64.6    20.5    26.6    3.60    2.71      4.3    76.3    18.4     8.2    3.61    1.74     3.1    1.4    0.3    6.66    1.87
 2015 218    58    57    66.4    23.7    25.3    3.61    2.66      4.3    78.8    17.5     7.9    3.54    1.71     3.0    1.4    0.0    7.18    1.94
 2015 219    59    58    68.3    27.1    24.1    3.62    2.60      4.3    81.3    16.6     7.5    3.47    1.67     2.9    1.3    0.0    7.67    2.00
 2015 220    60    59    69.0    29.7    23.0    3.57    2.48      4.6    81.9    15.8     7.2    3.37    1.58     2.9    1.3    0.2    7.93    2.05
 2015 221    61    60    70.8    32.9    22.0    3.57    2.40      4.9    83.5    15.0     7.0    3.28    1.52     2.8    1.3    0.3    8.02    2.09
 2015 222    62    61    73.1    36.4    20.9    3.58    2.34      4.9    85.9    14.2     6.7    3.21    1.48     2.7    1.3    0.0    8.13    2.13
 2015 223    63    62    73.6    38.8    19.8    3.53    2.22      5.3    86.3    13.4     6.4    3.09    1.40     2.6    1.2    0.3    8.42    2.17
 2015 224    64    63    74.7    41.9    18.4    3.51    2.11      5.7    87.3    12.4     6.0    2.97    1.33     2.6    1.2    0.4    8.78    2.21
 2015 225    65    64    76.3    45.1    17.4    3.50    2.03      5.7    89.0    11.7     5.7    2.87    1.27     2.5    1.2    0.0    8.88    2.24
 2015 226    66    65    74.7    48.1    13.2    3.49    1.85      5.7    90.7     8.1     5.1    2.72    1.23     2.4    1.2    0.0   12.18    2.28
 2015 227    67    66    72.8    49.8    10.3    3.44    1.64      5.7    91.1     5.7     4.6    2.53    1.15     2.3    1.2    0.0   14.49    2.32
 2015 228    68    67    72.1    51.6     8.2    3.43    1.50      5.7    91.9     3.9     4.2    2.40    1.11     2.2    1.2    0.0   16.09    2.35
 2015 229    69    68    71.8    53.3     6.7    3.44    1.39      5.7    92.7     2.8     3.9    2.29    1.09     2.2    1.1    0.0   17.21    2.40
 2015 230    70    69    71.3    54.2     5.6    3.43    1.29      5.7    93.0     1.9     3.7    2.18    1.06     2.1    1.1    0.0   18.00    2.43
 2015 231    71    70    71.0    55.1     4.8    3.43    1.20      5.7    93.2     1.4     3.5    2.07    1.03     2.1    1.1    0.0   18.56    2.48
 2015 232    72    71    70.7    55.8     4.3    3.44    1.14      5.7    93.3     1.0     3.3    1.98    1.01     2.0    1.1    0.0   18.95    2.52
 2015 233    73    72    70.5    56.2     3.9    3.44    1.09      5.7    93.3     0.7     3.2    1.91    0.99     2.0    1.1    0.0   19.23    2.57
 2015 234    74    73    70.3    56.5     3.6    3.44    1.06      5.7    93.3     0.5     3.1    1.87    0.99     1.9    1.1    0.0   19.42    2.61

*DSSAT Cropping System Model Ver. 4.7.5.007 -  MAR 01, 2026 21:01:02
@YEAR DOY   DAS   DAP    CNAD    GNAD    VNAD    GN%D    VN%D     NFXC    NUPC    LNAD    SNAD    LN%D    SN%D    SHND   RN%D   NFXD   SNN0C   SNN1C
 2016 132     1     0     0.0     0.0     0.0    0.00    0.00      0.0     0.0     0.0     0.0    0.00    0.00     0.0    0.0    0.0    0.00    0.00
 2016 133     2     1     0.0     0.0     0.0    0.00    0.00      0.0     0.0     0.0     0.0    0.00    0.00     0.0    0.0    0.0    0.00    0.00
 2016 134     3     2     0.0     0.0     0.0    0.00    0.00      0.0     0.0     0.0     0.0    0.00    0.00     0.0    0.0    0.0    0.00    0.00
 2016 135     4     3     0.0     0.0     0.0    0.00    0.00      0.0     0.0     0.0     0.0    0.00    0.00     0.0    0.0    0.0    0.00    0.00
 2016 136     5     4     0.6     0.0     0.6    0.00    3.41      0.2     0.0     0.5     0.1    3.84    2.41     0.0    1.6    0.0    0.00    0.02
 2016 137     6     5     0.7     0.0     0.7    0.00    3.40      0.2     0.1     0.6     0.1    3.80    2.38     0.0    1.6    0.0    0.00    0.03
 2016 138     7     6     0.8     0.0     0.8    0.00    3.46      0.2     0.2     0.7     0.1    3.84    2.39     0.0    1.6    0.0    0.00    0.04
 2016 139     8     7     0.9     0.0     0.9    0.00    3.49      0.2     0.3     0.8     0.2    3.85    2.40     0.0    1.6    0.0    0.00    0.05
 2016 140     9     8     1.1     0.0     1.1    0.00    3.50      0.2     0.5     0.9     0.2    3.85    2.40     0.0    1.6    0.0    0.00    0.07
 2016 141    10     9     1.2     0.0     1.2    0.00    3.44      0.3     0.6     1.0     0.2    3.82    2.38     0.0    1.6    0.0    0.00    0.07
 2016 142    11    10     1.4     0.0     1.4    0.00    3.48      0.3     0.8     1.2     0.3    3.85    2.40     0.0    1.6    0.0    0.00    0.09
 2016 143    12    11     1.7     0.0     1.7    0.00    3.50      0.3     1.1     1.4     0.3    3.85    2.40     0.0    1.6    0.0    0.00    0.10
 2016 144    13    12     2.0     0.0     2.0    0.00    3.51      0.3     1.4     1.6     0.3    3.86    2.41     0.0    1.6    0.0    0.00    0.11
 2016 145    14    13     2.3     0.0     2.3    0.00    3.49      0.4     1.6     1.9     0.4    3.83    2.39     0.0    1.6    0.1    0.01    0.12
 2016 146    15    14     2.7     0.0     2.7    0.00    3.49      0.4     2.1     2.3     0.4    3.82    2.38     0.0    1.6    0.0    0.01    0.13
 2016 147    16    15     3.2     0.0     3.2    0.00    3.51      0.4     2.6     2.7     0.5    3.84    2.40     0.0    1.6    0.0    0.01    0.14
 2016 148    17    16     3.7     0.0     3.7    0.00    3.44      0.6     2.9     3.1     0.6    3.77    2.36     0.0    1.6    0.2    0.02    0.15
 2016 149    18    17     4.3     0.0     4.3    0.00    3.44      0.7     3.4     3.6     0.7    3.77    2.36     0.0    1.5    0.1    0.03    0.16
 2016 150    19    18     5.0     0.0     5.0    0.00    3.45      0.7     4.2     4.2     0.8    3.78    2.36     0.0    1.5    0.0    0.04    0.17
 2016 151    20    19     5.6     0.0     5.6    0.00    3.25      1.0     4.6     4.7     0.9    3.57    2.23     0.0    1.5    0.2    0.05    0.18
 2016 152    21    20     6.5     0.0     6.5    0.00    3.20      1.3     5.3     5.5     1.1    3.52    2.19     0.0    1.5    0.3    0.07    0.19
 2016 153    22    21     7.2     0.0     7.2    0.00    3.01      1.7     5.7     6.0     1.2    3.31    2.06     0.0    1.4    0.3    0.08    0.21
 2016 154    23    22     8.3     0.0     8.3    0.00    3.03      2.0     6.6     6.8     1.5    3.34    2.11     0.0    1.4    0.2    0.10    0.22
 2016 155    24    23     9.3     0.0     9.3    0.00    2.91      2.4     7.3     7.5     1.7    3.24    2.02     0.0    1.4    0.4    0.12    0.23
 2016 156    25    24    10.8     0.0    10.8    0.00    2.94      2.8     8.5     8.6     2.2    3.28    2.07     0.0    1.4    0.3    0.15    0.24
 2016 157    26    25    12.6     0.0    12.6    0.00    3.01      2.8    10.6     9.9     2.7    3.37    2.15     0.0    1.5    0.0    0.15    0.27
 2016 158    27    26    15.3     0.0    15.3    0.00    3.24      2.8    13.5    11.9     3.4    3.62    2.36     0.0    1.6    0.0    0.19    0.29
 2016 159    28    27    16.8     0.0    16.8    0.00    3.24      3.4    14.9    12.9     3.9    3.66    2.34     0.0    1.6    0.5    0.44    0.32
 2016 160    29    28    18.8     0.0    18.8    0.00    3.27      3.4    17.2    14.3     4.5    3.72    2.36     0.0    1.6    0.0    0.57    0.35
 2016 161    30    29    20.4     0.0    20.4    0.00    3.21      4.1    18.4    15.4     5.0    3.69    2.29     0.0    1.5    0.6    0.76    0.37
 2016 162    31    30    22.5     0.0    22.5    0.00    3.23      4.1    20.9    16.7     5.8    3.75    2.30     0.0    1.5    0.0    0.99    0.41
 2016 163    32    31    25.2     0.0    25.2    0.00    3.34      4.1    24.5    18.5     6.7    3.89    2.40     0.0    1.6    0.0    1.15    0.45
 2016 164    33    32    27.4     0.0    27.4    0.00    3.39      4.1    27.2    19.9     7.5    3.99    2.42     0.0    1.6    0.0    1.42    0.49
 2016 165    34    33    29.6     0.0    29.6    0.00    3.43      4.1    30.0    21.3     8.4    4.08    2.44     0.0    1.6    0.0    1.68    0.54
 2016 166    35    34    32.2     0.0    32.2    0.00    3.43      4.1    33.1    22.9     9.3    4.12    2.43     0.0    1.6    0.0    1.82    0.60
 2016 167    36    35    34.7     0.0    34.4    0.00    3.40      4.1    35.9    24.1    10.2    4.12    2.40     3.5    1.6    0.0    2.02    0.67
 2016 168    37    36    36.9     0.0    36.0    0.00    3.33      4.5    38.1    25.0    10.9    4.08    2.34     3.5    1.5    0.4    2.19    0.70
 2016 169    38    37    40.1     0.0    38.1    0.00    3.33      4.5    42.0    26.3    11.8    4.09    2.35     3.5    1.6    0.0    2.23    0.77
 2016 170    39    38    42.1     0.0    38.8    0.00    3.25      4.8    44.0    26.6    12.2    4.03    2.27     3.5    1.5    0.3    2.44    0.81
 2016 171    40    39    45.7     0.0    40.6    0.00    3.25      4.8    47.7    27.6    13.0    4.05    2.29     3.5    1.5    0.0    2.47    0.88
 2016 172    41    40    49.0     0.0    42.0    0.00    3.29      4.8    51.9    28.4    13.6    4.10    2.32     3.5    1.6    0.0    2.72    0.95
 2016 173    42    41    51.9     0.3    42.2    3.65    3.29      4.8    55.2    28.4    13.8    4.12    2.32     3.5    1.6    0.0    3.05    1.01
 2016 174    43    42    54.7     1.1    41.5    3.67    3.27      4.8    58.3    28.0    13.6    4.11    2.30     3.5    1.6    0.0    3.30    1.09
 2016 175    44    43    57.1     2.3    40.4    3.67    3.22      5.4    60.4    27.2    13.3    4.06    2.26     3.4    1.5    0.5    3.53    1.13
 2016 176    45    44    59.7     3.8    39.3    3.67    3.18      5.5    63.5    26.4    12.9    4.03    2.23     3.4    1.5    0.1    3.76    1.18
 2016 177    46    45    61.8     5.9    38.2    3.66    3.07      6.2    65.2    25.6    12.6    3.94    2.12     3.4    1.5    0.6    3.98    1.22
 2016 178    47    46    64.3     8.2    37.1    3.64    3.03      6.5    67.9    24.9    12.3    3.90    2.09     3.3    1.5    0.3    4.19    1.26
 2016 179    48    47    66.6    11.0    36.0    3.63    2.99      6.5    70.7    24.1    11.9    3.86    2.06     3.3    1.5    0.0    4.56    1.32
 2016 180    49    48    68.9    14.0    34.9    3.62    2.95      6.5    73.5    23.3    11.6    3.81    2.02     3.2    1.4    0.0    4.83    1.38
 2016 181    50    49    70.7    17.1    33.7    3.61    2.83      7.2    74.7    22.4    11.2    3.71    1.92     3.2    1.4    0.6    4.94    1.41
 2016 182    51    50    72.4    20.2    32.4    3.61    2.78      7.4    76.6    21.6    10.9    3.66    1.88     3.1    1.4    0.2    5.28    1.44
 2016 183    52    51    74.3    23.5    31.1    3.61    2.72      7.4    79.2    20.6    10.5    3.60    1.84     3.1    1.4    0.0    5.73    1.50
 2016 184    53    52    75.2    26.5    29.8    3.58    2.59      8.1    79.7    19.7    10.1    3.48    1.73     3.0    1.4    0.7    6.11    1.53
 2016 185    54    53    76.9    30.0    28.4    3.59    2.50      8.9    81.0    18.7     9.7    3.39    1.65     2.9    1.3    0.7    6.44    1.57
 2016 186    55    54    78.8    33.6    27.1    3.59    2.44      9.4    82.9    17.8     9.3    3.32    1.61     2.9    1.3    0.5    6.74    1.60
 2016 187    56    55    80.8    37.2    25.8    3.60    2.38      9.4    85.2    16.9     8.9    3.25    1.57     2.8    1.3    0.0    6.98    1.64
 2016 188    57    56    81.8    40.2    24.5    3.56    2.26     10.1    85.6    16.0     8.5    3.13    1.48     2.7    1.3    0.7    7.09    1.67
 2016 189    58    57    83.4    43.5    23.4    3.56    2.16     10.9    86.5    15.2     8.2    3.03    1.41     2.6    1.3    0.7    7.20    1.70
 2016 190    59    58    85.4    47.1    22.1    3.57    2.09     11.6    87.8    14.3     7.8    2.94    1.37     2.6    1.2    0.7    7.31    1.73
 2016 191    60    59    85.4    49.2    20.9    3.52    1.93     11.6    88.1    13.4     7.4    2.79    1.24     2.5    1.2    0.0    7.57    1.75
 2016 192    61    60    82.3    51.8    15.9    3.49    1.69     11.6    88.7     9.3     6.6    2.57    1.14     2.4    1.2    0.0   11.42    1.78
 2016 193    62    61    80.6    54.2    12.4    3.46    1.52     11.6    89.7     6.4     6.0    2.41    1.09     2.3    1.2    0.0   14.05    1.80
 2016 194    63    62    80.0    56.4    10.0    3.45    1.40     11.6    90.8     4.5     5.5    2.29    1.07     2.2    1.2    0.0   15.87    1.83
 2016 195    64    63    78.9    57.6     8.3    3.43    1.28     11.6    91.1     3.2     5.2    2.17    1.03     2.2    1.1    0.0   17.15    1.85
 2016 196    65    64    78.6    58.9     7.1    3.42    1.20     11.6    91.6     2.2     4.9    2.07    1.00     2.1    1.1    0.0   18.05    1.87
 2016 197    66    65    78.3    59.9     6.2    3.43    1.13     11.6    92.0     1.6     4.6    1.98    0.98     2.0    1.1    0.0   18.69    1.92
 2016 198    67    66    78.0    60.7     5.5    3.43    1.07     11.6    92.1     1.1     4.4    1.90    0.97     2.0    1.1    0.0   19.14    1.97
 2016 199    68    67    77.8    61.2     5.0    3.43    1.03     11.6    92.2     0.8     4.2    1.83    0.95     1.9    1.1    0.0   19.46    2.02
 2016 200    69    68    77.5    61.5     4.7    3.43    1.00     11.6    92.2     0.6     4.1    1.79    0.95     1.9    1.1    0.0   19.69    2.06

*DSSAT Cropping System Model Ver. 4.7.5.007 -  MAR 01, 2026 21:01:02
@YEAR DOY   DAS   DAP    CNAD    GNAD    VNAD    GN%D    VN%D     NFXC    NUPC    LNAD    SNAD    LN%D    SN%D    SHND   RN%D   NFXD   SNN0C   SNN1C
 2016 154     1     0     0.0     0.0     0.0    0.00    0.00      0.0     0.0     0.0     0.0    0.00    0.00     0.0    0.0    0.0    0.00    0.00
 2016 155     2     1     0.0     0.0     0.0    0.00    0.00      0.0     0.0     0.0     0.0    0.00    0.00     0.0    0.0    0.0    0.00    0.00
 2016 156     3     2     0.0     0.0     0.0    0.00    0.00      0.0     0.0     0.0     0.0    0.00    0.00     0.0    0.0    0.0    0.00    0.00
 2016 157     4     3     0.0     0.0     0.0    0.00    0.00      0.0     0.0     0.0     0.0    0.00    0.00     0.0    0.0    0.0    0.00    0.00
 2016 158     5     4     0.6     0.0     0.6    0.00    3.41      0.2     0.0     0.5     0.1    3.84    2.40     0.0    1.6    0.0    0.00    0.01
 2016 159     6     5     0.7     0.0     0.7    0.00    3.44      0.2     0.1     0.6     0.1    3.85    2.41     0.0    1.6    0.0    0.00    0.03
 2016 160     7     6     0.8     0.0     0.8    0.00    3.47      0.2     0.2     0.7     0.1    3.85    2.41     0.0    1.6    0.0    0.00    0.04
 2016 161     8     7     0.9     0.0     0.9    0.00    3.49      0.2     0.3     0.8     0.2    3.85    2.42     0.0    1.6    0.0    0.00    0.05
 2016 162     9     8     1.1     0.0     1.1    0.00    3.50      0.2     0.5     0.9     0.2    3.85    2.42     0.0    1.6    0.0    0.00    0.07
 2016 163    10     9     1.2     0.0     1.2    0.00    3.49      0.2     0.6     1.0     0.2    3.85    2.42     0.0    1.6    0.0    0.00    0.08
 2016 164    11    10     1.3     0.0     1.3    0.00    3.48      0.2     0.8     1.1     0.2    3.85    2.42     0.0    1.6    0.0    0.00    0.09
 2016 165    12    11     1.5     0.0     1.5    0.00    3.49      0.2     1.0     1.3     0.3    3.85    2.42     0.0    1.6    0.0    0.00    0.10
 2016 166    13    12     1.8     0.0     1.8    0.00    3.50      0.2     1.3     1.5     0.3    3.86    2.42     0.0    1.6    0.0    0.00    0.11
 2016 167    14    13     2.1     0.0     2.1    0.00    3.51      0.2     1.6     1.7     0.3    3.86    2.42     0.0    1.6    0.0    0.00    0.12
 2016 168    15    14     2.4     0.0     2.4    0.00    3.52      0.2     2.0     2.0     0.4    3.86    2.42     0.0    1.6    0.0    0.00    0.13
 2016 169    16    15     2.8     0.0     2.8    0.00    3.49      0.3     2.3     2.4     0.5    3.83    2.40     0.0    1.6    0.0    0.01    0.14
 2016 170    17    16     3.3     0.0     3.3    0.00    3.51      0.3     2.8     2.8     0.5    3.84    2.41     0.0    1.6    0.0    0.01    0.15
 2016 171    18    17     3.7     0.0     3.7    0.00    3.40      0.5     3.1     3.1     0.6    3.72    2.33     0.0    1.6    0.2    0.01    0.16
 2016 172    19    18     4.4     0.0     4.4    0.00    3.39      0.6     3.6     3.7     0.7    3.71    2.32     0.0    1.6    0.1    0.02    0.17
 2016 173    20    19     5.1     0.0     5.1    0.00    3.41      0.6     4.4     4.3     0.8    3.74    2.34     0.0    1.6    0.0    0.03    0.18
 2016 174    21    20     5.8     0.0     5.8    0.00    3.35      0.9     4.9     4.9     0.9    3.67    2.30     0.0    1.5    0.2    0.04    0.19
 2016 175    22    21     6.8     0.0     6.8    0.00    3.34      1.1     5.7     5.7     1.1    3.66    2.29     0.0    1.5    0.2    0.06    0.20
 2016 176    23    22     7.4     0.0     7.4    0.00    3.12      1.4     6.1     6.2     1.2    3.43    2.14     0.0    1.5    0.3    0.08    0.21
 2016 177    24    23     8.4     0.0     8.4    0.00    3.08      1.8     6.9     6.9     1.5    3.41    2.14     0.0    1.5    0.3    0.10    0.22
 2016 178    25    24     9.2     0.0     9.2    0.00    2.93      2.2     7.4     7.5     1.7    3.27    2.02     0.0    1.4    0.4    0.11    0.23
 2016 179    26    25    10.5     0.0    10.5    0.00    2.94      2.7     8.4     8.4     2.1    3.29    2.05     0.0    1.4    0.4    0.13    0.24
 2016 180    27    26    12.0     0.0    12.0    0.00    2.96      2.9     9.8     9.5     2.5    3.33    2.09     0.0    1.4    0.1    0.16    0.26
 2016 181    28    27    13.7     0.0    13.7    0.00    3.00      2.9    11.7    10.8     3.0    3.38    2.14     0.0    1.5    0.0    0.17    0.28
 2016 182    29    28    14.9     0.0    14.9    0.00    2.91      3.5    12.4    11.6     3.3    3.30    2.06     0.0    1.4    0.5    0.23    0.30
 2016 183    30    29    16.8     0.0    16.8    0.00    2.96      4.1    14.1    12.9     3.9    3.37    2.10     0.0    1.4    0.5    0.35    0.32
 2016 184    31    30    19.3     0.0    19.3    0.00    3.09      4.1    16.9    14.7     4.6    3.53    2.22     0.0    1.5    0.0    0.47    0.35
 2016 185    32    31    20.1     0.0    20.1    0.00    2.97      4.8    17.5    15.2     5.0    3.42    2.11     0.0    1.4    0.7    0.74    0.37
 2016 186    33    32    22.3     0.0    22.3    0.00    3.00      5.3    19.5    16.6     5.7    3.48    2.14     0.0    1.4    0.4    0.92    0.40
 2016 187    34    33    25.5     0.0    25.5    0.00    3.16      5.3    23.1    18.7     6.8    3.68    2.28     0.0    1.5    0.0    1.12    0.44
 2016 188    35    34    28.5     0.0    28.5    0.00    3.34      5.3    27.4    20.6     7.9    3.91    2.42     0.0    1.5    0.0    1.45    0.49
 2016 189    36    35    29.7     0.0    29.7    0.00    3.23      6.3    28.3    21.3     8.5    3.85    2.30     0.0    1.5    0.8    1.82    0.52
 2016 190    37    36    32.2     0.0    32.0    0.00    3.20      6.4    31.0    22.6     9.4    3.85    2.28     3.5    1.5    0.2    1.98    0.56
 2016 191    38    37    35.4     0.0    34.7    0.00    3.24      6.4    35.2    24.3    10.4    3.91    2.31     3.5    1.5    0.0    2.05    0.64
 2016 192    39    38    37.0     0.0    35.4    0.00    3.11      7.5    36.1    24.6    10.8    3.81    2.19     3.5    1.5    0.9    2.30    0.68
 2016 193    40    39    39.6     0.0    36.7    0.00    3.06      7.5    39.0    25.3    11.4    3.77    2.16     3.5    1.5    0.0    2.41    0.77
 2016 194    41    40    44.2     0.0    39.6    0.00    3.15      7.5    43.8    27.0    12.6    3.88    2.26     3.5    1.5    0.0    2.42    0.86
 2016 195    42    41    47.7     0.0    41.2    0.00    3.22      7.5    48.2    27.8    13.4    3.97    2.31     3.5    1.6    0.0    2.69    0.95
 2016 196    43    42    49.5     0.2    40.7    3.67    3.11      8.6    49.5    27.4    13.3    3.90    2.20     3.5    1.6    0.9    3.08    0.99
 2016 197    44    43    52.7     0.8    40.7    3.69    3.09      8.6    52.9    27.3    13.5    3.88    2.19     3.4    1.5    0.0    3.32    1.09
 2016 198    45    44    56.7     1.8    41.1    3.69    3.13      8.6    57.2    27.5    13.7    3.92    2.23     3.5    1.6    0.0    3.56    1.17
 2016 199    46    45    59.5     3.3    40.1    3.66    3.10      8.6    60.3    26.7    13.4    3.89    2.20     3.4    1.6    0.0    3.84    1.26
 2016 200    47    46    62.0     5.0    39.2    3.63    3.07      8.6    63.3    26.1    13.1    3.86    2.18     3.4    1.5    0.0    4.11    1.33
 2016 201    48    47    63.9     7.2    38.1    3.63    2.95      9.6    64.6    25.3    12.7    3.77    2.07     3.4    1.5    0.9    4.40    1.37
 2016 202    49    48    66.5     9.7    36.9    3.62    2.92      9.9    67.5    24.5    12.4    3.73    2.04     3.3    1.5    0.3    4.71    1.41
 2016 203    50    49    68.8    12.8    35.7    3.63    2.87      9.9    70.5    23.7    12.0    3.68    2.00     3.3    1.5    0.0    5.34    1.49
 2016 204    51    50    70.5    16.1    34.5    3.63    2.73     11.0    71.4    22.8    11.6    3.57    1.87     3.2    1.5    1.0    5.46    1.53
 2016 205    52    51    72.7    19.5    33.1    3.64    2.69     11.6    73.4    21.9    11.3    3.52    1.84     3.1    1.4    0.6    5.85    1.57
 2016 206    53    52    75.1    23.2    31.7    3.65    2.63     11.6    76.4    20.9    10.8    3.45    1.80     3.1    1.4    0.0    6.23    1.65
 2016 207    54    53    77.1    26.7    30.3    3.65    2.57     11.6    79.2    19.9    10.4    3.39    1.76     3.0    1.4    0.0    6.82    1.73
 2016 208    55    54    78.5    30.5    28.9    3.65    2.44     12.7    79.9    19.0    10.0    3.27    1.64     2.9    1.4    1.0    7.26    1.76
 2016 209    56    55    80.7    34.4    27.6    3.65    2.38     13.7    81.6    18.0     9.6    3.20    1.60     2.9    1.3    1.1    7.67    1.80
 2016 210    57    56    83.1    38.3    26.3    3.66    2.32     13.9    84.2    17.1     9.2    3.13    1.57     2.8    1.3    0.2    7.94    1.83
 2016 211    58    57    84.6    41.8    25.0    3.63    2.20     15.0    84.7    16.2     8.8    3.02    1.47     2.7    1.3    1.1    8.07    1.86
 2016 212    59    58    86.8    45.9    23.7    3.63    2.12     16.1    85.9    15.3     8.4    2.93    1.42     2.6    1.3    1.1    8.20    1.89
 2016 213    60    59    89.0    49.8    22.5    3.63    2.07     16.7    87.8    14.5     8.0    2.86    1.38     2.6    1.3    0.6    8.42    1.91
 2016 214    61    60    91.1    53.7    21.3    3.63    1.99     16.7    90.0    13.7     7.7    2.76    1.33     2.5    1.2    0.0    8.52    1.94
 2016 215    62    61    87.7    55.9    16.4    3.57    1.74     16.7    90.5     9.6     6.9    2.56    1.21     2.4    1.2    0.0   12.44    1.96
 2016 216    63    62    86.0    58.2    12.9    3.53    1.58     16.7    91.4     6.7     6.2    2.41    1.16     2.3    1.2    0.0   15.16    1.99
 2016 217    64    63    85.4    60.8    10.4    3.53    1.46     16.7    92.8     4.7     5.7    2.29    1.13     2.3    1.2    0.0   17.07    2.01
 2016 218    65    64    84.4    62.1     8.6    3.50    1.33     16.7    93.0     3.3     5.3    2.16    1.08     2.2    1.2    0.0   18.41    2.04
 2016 219    66    65    84.1    63.6     7.3    3.50    1.24     16.7    93.7     2.3     5.0    2.06    1.05     2.1    1.1    0.0   19.35    2.08
 2016 220    67    66    83.8    64.7     6.4    3.51    1.18     16.7    94.0     1.6     4.7    1.97    1.03     2.1    1.1    0.0   20.01    2.14
 2016 221    68    67    83.5    65.5     5.7    3.51    1.12     16.7    94.2     1.1     4.5    1.89    1.01     2.0    1.1    0.0   20.48    2.21
 2016 222    69    68    83.2    66.0     5.2    3.51    1.07     16.7    94.2     0.8     4.3    1.82    0.99     2.0    1.1    0.0   20.81    2.27
 2016 223    70    69    83.0    66.4     4.8    3.51    1.04     16.7    94.2     0.6     4.2    1.78    0.98     1.9    1.1    0.0   21.05    2.32
