*PLANT C OUTPUT FILE

*DSSAT Cropping System Model Ver. 4.7.5.007 -  MAR 01, 2026 21:01:02
@YEAR DOY   DAS   DAP   TWAD    PHAD    CMAD    CGRD    GRAD    MRAD    CHAD   CL%D   CS%D   TGNN   TGAV    GN%D    GL%D    GC%D
 2015 103     1     0      0  0.0000  0.0000  0.0000  0.0000  0.0000 0.00000  0.000  0.000 28.006 25.028  0.0000  0.0000  0.0000
 2015 104     2     1      0  0.0000  0.0000  0.0000  0.0000  0.0000 0.00000  0.000  0.000 26.508 24.337  0.0000  0.0000  0.0000
 2015 105     3     2      0  0.0000  0.0000  0.0000  0.0000  0.0000 0.00000  0.000  0.000 27.754 24.883  0.0000  0.0000  0.0000
 2015 106     4     3      0  0.0000  0.0000  0.0000  0.0000  0.0000 0.00000  0.000  0.000 26.369 23.534  0.0000  0.0000  0.0000
 2015 107     5     4     37  0.0000  0.0045  0.0030  0.0008  0.0000 0.00000  3.900  7.792 27.753 24.500  0.0000  0.0000  0.0000
 2015 108     6     5     39  0.5327  0.0042  0.3193  0.0924  0.0568 0.00000  3.833  7.613 28.002 24.260  0.0000  0.0000  0.0000
 2015 109     7     6     43  0.6431  0.0044  0.3865  0.1142  0.0661 0.00000  3.778  7.454 28.034 24.364  0.0000  0.0000  0.0000
 2015 110     8     7     47  0.6959  0.0045  0.5174  0.1065  0.0692 0.00000  3.786  7.328 27.613 23.909  0.0000  0.0000  0.0000
 2015 111     9     8     53  0.9777  0.0052  0.7011  0.1463  0.0975 0.00000  3.789  7.271 28.406 25.088  0.0000  0.0000  0.0000
 2015 112    10     9     59  1.1463  0.0055  0.6546  0.2117  0.1016 0.00000  3.719  7.255 26.792 23.650  0.0000  0.0000  0.0000
 2015 113    11    10     66  1.2687  0.0063  0.8427  0.2347  0.1210 0.00000  3.738  7.175 28.028 24.573  0.0000  0.0000  0.0000
 2015 114    12    11     75  1.5426  0.0069  1.0111  0.2775  0.1389 0.00000  3.755  7.122 27.781 24.049  0.0000  0.0000  0.0000
 2015 115    13    12     87  1.9841  0.0081  1.2736  0.3471  0.1836 0.00000  3.764  7.090 28.404 24.916  0.0000  0.0000  0.0000
 2015 116    14    13     99  2.2343  0.0088  1.4227  0.4475  0.1892 0.00000  3.775  7.070 27.229 23.603  0.0000  0.0000  0.0000
 2015 117    15    14    115  2.7454  0.0097  1.7325  0.5157  0.2128 0.00000  3.759  7.016 26.435 22.637  0.0000  0.0000  0.0000
 2015 118    16    15    134  3.0276  0.0000  2.0648  0.4951  0.2324 0.00348  3.879  7.190 26.260 22.324  0.0000  0.0000  0.0000
 2015 119    17    16    154  3.3284  0.0122  2.0870  0.6069  0.2360 0.00000  3.855  7.160 25.612 21.016  0.0000  0.0000  0.0000
 2015 120    18    17    153  0.0192  0.0010  0.0000  0.0034  0.0114 0.00000  3.848  7.149  7.477  5.319  0.0000  0.0000  0.0000
 2015 121    19    18    174  3.5897  0.0133  2.3084  0.6102  0.2541 0.00000  3.839  7.149 26.178 20.577  0.0000  0.0000  0.0000
 2015 122    20    19    197  4.3274  0.0158  2.1828  0.8356  0.3086 0.00000  3.740  7.109 25.873 21.039  0.0000  0.0000  0.0000
 2015 123    21    20    221  4.5052  0.0176  2.5015  0.8218  0.3251 0.00000  3.683  7.044 25.578 20.955  0.0000  0.0000  0.0000
 2015 124    22    21    246  4.2878  0.0186  2.7822  0.8569  0.3003 0.00000  3.703  7.033 24.230 20.094  0.0000  0.0000  0.0000
 2015 125    23    22    283  5.7615  0.0223  4.1215  1.0159  0.4237 0.00000  3.727  7.050 25.698 21.321  0.0000  0.0000  0.0000
 2015 126    24    23    318  5.5757  0.0000  3.5766  0.8267  0.4170 0.28929  4.932  8.120 24.679 21.033  0.0000  0.0000  0.0000
 2015 127    25    24    367  7.8067  0.0360  5.5116  1.3163  0.5681 0.00000  4.759  7.900 25.519 21.388  0.0000  0.0000  0.0000
 2015 128    26    25    419  8.8827  0.0432  5.6644  1.5449  0.7032 0.00000  4.615  7.768 26.344 22.458  0.0000  0.0000  0.0000
 2015 129    27    26    472  9.4127  0.0455  5.1492  1.8473  0.6789 0.00000  4.419  7.662 24.625 21.087  0.0000  0.0000  0.0000
 2015 130    28    27    518  9.0449  0.0510  4.0466  1.9188  0.7110 0.00000  4.260  7.528 25.844 21.405  0.0000  0.0000  0.0000
 2015 131    29    28    546  5.9549  0.0447  4.2594  1.0550  0.4250 0.00000  4.299  7.440 20.368 18.426  0.0000  0.0000  0.0000
 2015 132    30    29    593  9.2446  0.0513  6.0548  1.7320  0.6300 0.00000  4.295  7.377 21.358 19.591  0.0000  0.0000  0.0000
 2015 133    31    30    650 11.0139  0.0573  7.1947  1.9886  0.7596 0.00000  4.303  7.325 23.099 19.912  0.0000  0.0000  0.0000
 2015 134    32    31    708 12.6091  0.0000  7.5632  1.7018  0.8908 1.39229  6.776  9.232 24.549 20.151  0.0000  0.0000  0.0000
 2015 135    33    32    785 12.2493  0.0000  8.1200  1.8686  0.8432 0.37331  6.936 10.106 23.827 19.396  0.0000  0.0000  0.0000
 2015 136    34    33    845 12.1051  0.1060  7.7693  2.1949  0.8398 0.14767  6.861 10.066 22.895 19.158  0.0000  0.0000  0.0000
 2015 137    35    34    920 15.5236  0.1264  8.8585  2.9945  1.1598 0.28934  6.825 10.269 24.788 20.671  0.0000  0.0000  0.0000
 2015 138    36    35    981 16.5025  0.1461  8.0367  3.4675  1.3185 0.38269  6.931 10.609 25.378 21.435  0.0000  0.0000  0.0000
 2015 139    37    36   1038 16.8855  0.1779 10.0589  3.0461  1.5423 0.64176  7.386 11.362 25.658 23.169  0.0000  0.0000  0.0000
 2015 140    38    37   1129 17.0203  0.1797  9.6450  3.0810  1.3745 0.66926  7.453 11.986 24.608 21.291  0.0000  0.0000  0.0000
 2015 141    39    38   1218 17.9394  0.1977  9.6979  3.2512  1.4213 0.71483  7.579 12.591 24.645 20.844  0.0000  0.0000  0.0000
 2015 142    40    39   1307 17.9769  0.0000 10.7481  2.7511  1.4794 0.99202  8.107 13.767 24.636 21.009  0.0000  0.0000  0.0000
 2015 143    41    40   1398 17.9151  0.2838  9.6048  3.1769  1.6908 0.65915  8.150 14.122 25.283 22.486  0.0000  0.0000  0.0000
 2015 144    42    41   1488 19.6730  0.3418  9.4330  3.8364  1.8990 0.57289  8.140 14.333 26.306 22.820  0.0000  0.0000  0.0000
 2015 145    43    42   1578 20.5800  0.4029 10.3533  3.9726  2.1218 0.56446  8.172 14.511 26.730 23.658  3.7051  3.0000 64.3428
 2015 146    44    43   1683 20.5690  0.0000  7.5084  2.3202  2.1070 6.20910 11.012 22.158 26.453 23.244  3.6923  2.9985 64.4247
 2015 147    45    44   1761 18.5366  0.6858 10.5645  3.6252  2.0469 0.00000 10.883 21.645 26.532 23.290  3.6916  2.9985 64.4292
 2015 148    46    45   1841 17.1613  0.5966 10.2670  3.3423  1.5215 0.00000 10.757 21.191 24.782 19.436  3.6381  2.9099 64.8520
 2015 149    47    46   1909 15.6576  0.5818  9.5329  3.0681  1.3547 0.00000 10.634 20.750 24.034 18.242  3.6110  2.8394 65.0920
 2015 150    48    47   1982 16.5540  0.6239 10.1730  3.2702  1.5804 0.00000 10.508 20.278 25.605 19.400  3.6006  2.8288 65.1672
 2015 151    49    48   2027 12.5259  0.6701  8.3589  2.2343  1.5874 0.01241 10.398 19.789 27.170 20.725  3.6023  2.8476 65.1379
 2015 152    50    49   2071 10.3165  0.6750  7.5059  1.7099  1.4392 0.00000 10.307 19.283 26.350 20.424  3.6017  2.8554 65.1343
 2015 153    51    50   2143 18.1316  0.7272 11.3408  3.5678  2.0815 0.00000 10.186 18.715 26.412 22.244  3.6112  2.8777 65.0521
 2015 154    52    51   2211 17.2486  0.7151 11.0602  3.3036  1.9539 0.00000 10.055 18.140 25.524 21.563  3.6146  2.8895 65.0196
 2015 155    53    52   2250 16.9093  0.6952 10.9281  3.2584  1.8602 0.00000  9.908 17.437 24.884 20.855  3.6141  2.8929 65.0192
 2015 156    54    53   2275 13.6011  0.0000  8.3392  1.8313  1.6954 1.11480 10.704 18.963 24.883 20.854  3.5823  2.9602 65.1502
 2015 157    55    54   2346 15.2018  0.4954  9.9906  2.7866  1.8134 0.08714 10.714 18.676 25.486 21.287  3.5872  2.9576 65.1223
 2015 158    56    55   2416 14.9091  0.7315  9.9857  2.8202  1.8045 0.00000 10.532 17.999 25.461 21.400  3.5915  2.9562 65.0971
 2015 159    57    56   2482 14.2326  0.7045  9.5802  2.7080  1.6927 0.00000 10.335 17.325 25.437 20.791  3.5932  2.9518 65.0909
 2015 160    58    57   2539 12.8514  0.0000  7.6425  1.5170  1.6159 1.29982 11.264 19.364 25.621 20.770  3.5430  3.0544 65.3019
 2015 161    59    58   2598 12.0808  0.7211  8.4418  2.0919  1.5339 0.01590 11.068 18.676 24.986 20.617  3.5284  3.0822 65.3653
 2015 162    60    59   2663 13.5302  0.7478  9.2122  2.5388  1.7137 0.00498 10.843 17.920 25.885 21.516  3.5361  3.0722 65.3269
 2015 163    61    60   2735 12.9795  0.0000  6.5754  0.9619  1.7055 2.92793 12.697 22.577 25.626 21.877  3.4847  3.1842 65.5363
 2015 164    62    61   2687 12.6099  0.0000  7.2251  1.3707  1.6253 1.63956 13.586 24.486 26.036 21.221  3.4468  3.2642 65.6932
 2015 165    63    62   2646  9.7974  0.6998  6.8076  1.6250  1.3970 0.05510 13.075 23.261 26.021 21.000  3.4301  3.2989 65.7627
 2015 166    64    63   2616  7.7006  0.7335  5.3491  1.4134  1.3102 0.00103 12.395 21.875 26.448 21.840  3.4348  3.2929 65.7393
 2015 167    65    64   2591  5.4869  0.6119  3.8596  0.9225  1.1051 0.00382 11.753 20.649 26.152 21.373  3.4349  3.2940 65.7380
 2015 168    66    65   2569  3.9426  0.5518  2.7963  0.6154  1.0258 0.00004 11.109 19.492 26.219 21.921  3.4388  3.2879 65.7197
 2015 169    67    66   2552  2.9373  0.4863  2.0934  0.4010  0.9334 0.00000 10.491 18.431 26.223 21.753  3.4415  3.2834 65.7071
 2015 170    68    67   2536  2.0243  0.4275  1.4899  0.2174  0.8003 0.00000  9.906 17.461 24.951 20.894  3.4432  3.2798 65.7003
 2015 171    69    68   2523  1.2233  0.3658  0.9071  0.1087  0.6265 0.00000  9.364 16.601 23.346 18.739  3.4439  3.2766 65.6992
 2015 172    70    69   2511  0.9356  0.3406  0.6215  0.0744  0.6166 0.00000  8.829 15.781 22.489 19.223  3.4444  3.2746 65.6981

*DSSAT Cropping System Model Ver. 4.7.5.007 -  MAR 01, 2026 21:01:02
@YEAR DOY   DAS   DAP   TWAD    PHAD    CMAD    CGRD    GRAD    MRAD    CHAD   CL%D   CS%D   TGNN   TGAV    GN%D    GL%D    GC%D
 2015 126     1     0      0  0.0000  0.0000  0.0000  0.0000  0.0000 0.00000  0.000  0.000 24.679 21.033  0.0000  0.0000  0.0000
 2015 127     2     1      0  0.0000  0.0000  0.0000  0.0000  0.0000 0.00000  0.000  0.000 25.519 21.388  0.0000  0.0000  0.0000
 2015 128     3     2      0  0.0000  0.0000  0.0000  0.0000  0.0000 0.00000  0.000  0.000 26.344 22.458  0.0000  0.0000  0.0000
 2015 129     4     3      0  0.0000  0.0000  0.0000  0.0000  0.0000 0.00000  0.000  0.000 24.625 21.087  0.0000  0.0000  0.0000
 2015 130     5     4     37  0.0000  0.0038  0.0026  0.0008  0.0000 0.00000  3.915  7.822 25.844 21.405  0.0000  0.0000  0.0000
 2015 131     6     5     38  0.2441  0.0030  0.1492  0.0434  0.0230 0.00000  3.857  7.685 20.368 18.426  0.0000  0.0000  0.0000
 2015 132     7     6     40  0.4150  0.0033  0.2560  0.0747  0.0335 0.00000  3.808  7.550 21.358 19.591  0.0000  0.0000  0.0000
 2015 133     8     7     43  0.5404  0.0035  0.3338  0.0965  0.0417 0.00000  3.767  7.428 23.099 19.912  0.0000  0.0000  0.0000
 2015 134     9     8     46  0.6744  0.0037  0.4179  0.1218  0.0510 0.00000  3.732  7.330 24.549 20.151  0.0000  0.0000  0.0000
 2015 135    10     9     51  0.7435  0.0038  0.5406  0.1242  0.0526 0.00000  3.747  7.274 23.827 19.396  0.0000  0.0000  0.0000
 2015 136    11    10     56  0.8033  0.0041  0.4863  0.1478  0.0554 0.00000  3.703  7.245 22.895 19.158  0.0000  0.0000  0.0000
 2015 137    12    11     62  1.0845  0.0049  0.6789  0.1933  0.0795 0.00000  3.667  7.249 24.788 20.671  0.0000  0.0000  0.0000
 2015 138    13    12     69  1.2310  0.0057  0.7556  0.2313  0.0952 0.00000  3.650  7.184 25.378 21.435  0.0000  0.0000  0.0000
 2015 139    14    13     77  1.4629  0.0069  0.9699  0.2661  0.1251 0.00000  3.682  7.121 25.658 23.169  0.0000  0.0000  0.0000
 2015 140    15    14     87  1.7089  0.0070  1.1284  0.2941  0.1256 0.00000  3.709  7.091 24.608 21.291  0.0000  0.0000  0.0000
 2015 141    16    15     99  2.0225  0.0077  1.1650  0.3741  0.1424 0.00000  3.673  7.072 24.645 20.844  0.0000  0.0000  0.0000
 2015 142    17    16    113  2.2938  0.0087  1.6068  0.4205  0.1630 0.00000  3.704  7.067 24.636 21.009  0.0000  0.0000  0.0000
 2015 143    18    17    129  2.7166  0.0110  1.7442  0.4857  0.2135 0.00000  3.721  7.052 25.283 22.486  0.0000  0.0000  0.0000
 2015 144    19    18    149  3.3893  0.0127  1.9734  0.6117  0.2687 0.00000  3.656  7.029 26.306 22.820  0.0000  0.0000  0.0000
 2015 145    20    19    166  3.3626  0.0152  1.8335  0.6086  0.2944 0.00000  3.593  6.933 26.730 23.658  0.0000  0.0000  0.0000
 2015 146    21    20    180  2.6763  0.0164  1.4527  0.4793  0.2532 0.00000  3.527  6.809 26.453 23.244  0.0000  0.0000  0.0000
 2015 147    22    21    202  3.8921  0.0174  2.5231  0.7031  0.3362 0.00000  3.545  6.742 26.532 23.290  0.0000  0.0000  0.0000
 2015 148    23    22    224  3.9383  0.0154  2.3099  0.8109  0.2665 0.00000  3.540  6.778 24.782 19.436  0.0000  0.0000  0.0000
 2015 149    24    23    245  4.0623  0.0158  2.7800  0.7926  0.2568 0.00000  3.583  6.632 24.034 18.242  0.0000  0.0000  0.0000
 2015 150    25    24    262  4.8713  0.0184  2.8105  1.0189  0.3332 0.00000  3.557  6.260 25.605 19.400  0.0000  0.0000  0.0000
 2015 151    26    25    293  5.6929  0.0206  3.4400  1.1314  0.4245 0.00000  3.553  6.281 27.170 20.725  0.0000  0.0000  0.0000
 2015 152    27    26    331  6.3704  0.0230  4.2452  1.2266  0.4582 0.00000  3.581  6.480 26.350 20.424  0.0000  0.0000  0.0000
 2015 153    28    27    377  7.7668  0.0301  4.7499  1.5574  0.6122 0.00000  3.564  6.646 26.412 22.244  0.0000  0.0000  0.0000
 2015 154    29    28    426  8.4718  0.0339  5.0263  1.7152  0.6386 0.00000  3.537  6.754 25.524 21.563  0.0000  0.0000  0.0000
 2015 155    30    29    475  8.6446  0.0373  5.0519  1.6814  0.6348 0.00000  3.497  6.739 24.884 20.855  0.0000  0.0000  0.0000
 2015 156    31    30    519  7.9625  0.0415  5.1311  1.4908  0.6218 0.00000  3.500  6.686 24.883 20.854  0.0000  0.0000  0.0000
 2015 157    32    31    578 10.3822  0.0462  6.0967  2.2203  0.7951 0.00000  3.484  6.757 25.486 21.287  0.0000  0.0000  0.0000
 2015 158    33    32    637 11.4585  0.0523  7.0526  2.3235  0.8860 0.00000  3.537  6.799 25.461 21.400  0.0000  0.0000  0.0000
 2015 159    34    33    690 12.1940  0.0564  7.4642  2.2316  0.9161 0.07268  3.699  6.991 25.437 20.791  0.0000  0.0000  0.0000
 2015 160    35    34    738 11.7608  0.0632  7.7976  1.9854  0.9191 0.17632  3.922  7.324 25.621 20.770  0.0000  0.0000  0.0000
 2015 161    36    35    805 11.7078  0.0705  6.7483  2.2726  0.9192 0.23776  4.081  7.950 24.986 20.617  0.0000  0.0000  0.0000
 2015 162    37    36    873 14.2906  0.0856  8.3408  2.6613  1.1602 0.41811  4.447  8.845 25.885 21.516  0.0000  0.0000  0.0000
 2015 163    38    37    940 14.8307  0.1051  9.8992  2.4155  1.2466 0.62177  5.011  9.946 25.626 21.877  0.0000  0.0000  0.0000
 2015 164    39    38    995 15.4961  0.1214  7.9888  3.1509  1.2692 0.55005  5.351 10.677 26.036 21.221  0.0000  0.0000  0.0000
 2015 165    40    39   1068 15.7314  0.1367  8.3676  3.1082  1.2896 0.62130  5.663 11.474 26.021 21.000  0.0000  0.0000  0.0000
 2015 166    41    40   1146 16.6503  0.1656  8.7335  3.3123  1.4560 0.67551  5.962 12.230 26.448 21.840  0.0000  0.0000  0.0000
 2015 167    42    41   1229 16.4643  0.0000  8.1971  2.3099  1.4339 2.72150  7.624 16.580 26.152 21.373  0.0000  0.0000  0.0000
 2015 168    43    42   1306 15.8211  0.2924  8.4275  3.1972  1.4905 0.54179  7.681 16.717 26.219 21.921  0.0000  0.0000  0.0000
 2015 169    44    43   1382 16.9503  0.3279  8.0584  3.8614  1.5752 0.35269  7.605 16.629 26.223 21.753  3.6382  2.9603 64.8008
 2015 170    45    44   1467 16.9198  0.0000  6.4833  2.1329  1.4940 4.77440 10.213 23.512 24.951 20.894  3.6171  2.9244 64.9685
 2015 171    46    45   1527 14.3772  0.4592  8.2222  3.0807  1.1798 0.00000 10.113 23.095 23.346 18.739  3.5846  2.8187 65.2773
 2015 172    47    46   1595 15.7446  0.4926  9.2279  3.3428  1.2868 0.00000 10.006 22.650 22.489 19.223  3.5777  2.8030 65.3363
 2015 173    48    47   1661 15.1492  0.5102  9.0711  3.1821  1.3055 0.00000  9.894 22.190 23.684 19.146  3.5740  2.7931 65.3695
 2015 174    49    48   1749 15.9284  0.0000  6.5954  1.8096  1.4617 4.72256 12.375 28.569 24.070 20.048  3.5789  2.8139 65.3178
 2015 175    50    49   1800 13.6779  0.7034  8.6852  2.8067  1.3049 0.00000 12.251 28.002 23.703 19.200  3.5762  2.8051 65.3439
 2015 176    51    50   1862 14.8176  0.7074  9.4418  3.0302  1.3839 0.00000 12.119 27.415 24.137 19.152  3.5743  2.7988 65.3621
 2015 177    52    51   1939 13.6791  0.0000  7.3088  2.0017  1.2547 2.12278 13.350 30.270 22.947 18.340  3.5699  2.7785 65.4098
 2015 178    53    52   1995 13.3094  0.7740  8.6879  2.7325  1.2090 0.00000 13.205 29.642 22.262 17.861  3.5655  2.7556 65.4601
 2015 179    54    53   2045 12.9642  0.7759  8.6003  2.6263  1.2284 0.00000 13.051 28.994 22.777 17.860  3.5622  2.7387 65.4973
 2015 180    55    54   2099 13.9639  0.8109  9.2050  2.8148  1.4188 0.00000 12.891 28.299 23.711 19.034  3.5626  2.7421 65.4918
 2015 181    56    55   2168 13.6412  0.0000  6.9626  1.6844  1.4259 2.75859 14.508 32.048 23.979 19.060  3.5556  2.7601 65.5174
 2015 182    57    56   2227 13.6641  0.7712  9.0884  2.6109  1.5531 0.07302 14.449 31.531 25.518 19.946  3.5589  2.7696 65.4870
 2015 183    58    57   2281 13.8484  0.9797  9.2529  2.7661  1.5876 0.00000 14.236 30.678 25.262 20.308  3.5627  2.7805 65.4527
 2015 184    59    58   2352 13.5469  0.0000  7.6797  2.0041  1.5500 1.54173 15.309 32.871 25.268 20.142  3.5654  2.7883 65.4279
 2015 185    60    59   2404 13.0460  1.0447  8.7567  2.6150  1.5156 0.00000 15.047 31.937 25.708 19.928  3.5671  2.7932 65.4122
 2015 186    61    60   2455 11.5829  1.0007  8.0389  2.3426  1.3781 0.00000 14.763 30.996 25.606 19.274  3.5674  2.7928 65.4110
 2015 187    62    61   2505 10.5478  0.9762  7.5427  2.1189  1.2945 0.00000 14.466 30.039 25.222 19.096  3.5673  2.7913 65.4130
 2015 188    63    62   2537  7.4144  0.9287  5.7045  1.3957  0.9948 0.00034 14.171 29.093 21.852 18.134  3.5663  2.7844 65.4261
 2015 189    64    63   2547  3.4856  0.8466  3.1768  0.5567  0.6595 0.00004 13.859 28.182 17.709 16.091  3.5649  2.7726 65.4469
 2015 190    65    64   2600 10.6005  0.5256  7.3156  1.9804  1.1733 0.13786 13.876 27.882 23.368 18.581  3.5592  2.7797 65.4755
 2015 191    66    65   2544 11.7688  0.0000  6.3311  1.3052  1.4274 1.97017 14.981 30.255 26.083 20.228  3.5258  2.8567 65.6070
 2015 192    67    66   2502  9.7131  0.4702  6.5359  1.5214  1.3477 0.15665 14.751 29.375 26.574 21.063  3.4982  2.9264 65.7098
 2015 193    68    67   2465  6.9367  0.7466  4.8918  1.3688  1.0872 0.00004 14.023 27.775 26.231 20.270  3.5017  2.9245 65.6901
 2015 194    69    68   2443  5.4996  0.0000  3.2833  0.5284  1.0246 0.35706 14.380 28.273 26.958 20.859  3.4781  2.9782 65.7839
 2015 195    70    69   2420  3.9748  0.6055  2.8758  0.6969  0.8959 0.00003 13.648 26.877 26.493 20.633  3.4806  2.9766 65.7695
 2015 196    71    70   2401  2.8681  0.5314  2.0821  0.4592  0.8131 0.00000 12.937 25.582 26.664 20.562  3.4824  2.9754 65.7597
 2015 197    72    71   2385  2.0030  0.4711  1.5148  0.2733  0.7013 0.00000 12.253 24.376 25.114 20.010  3.4835  2.9741 65.7542
 2015 198    73    72   2371  1.4004  0.4193  1.0955  0.1490  0.6233 0.00000 11.603 23.257 24.498 19.358  3.4841  2.9728 65.7514
 2015 199    74    73   2359  0.9206  0.3750  0.7029  0.0842  0.5498 0.00000 10.979 22.215 23.513 18.579  3.4845  2.9716 65.7505

*DSSAT Cropping System Model Ver. 4.7.5.007 -  MAR 01, 2026 21:01:02
@YEAR DOY   DAS   DAP   TWAD    PHAD    CMAD    CGRD    GRAD    MRAD    CHAD   CL%D   CS%D   TGNN   TGAV    GN%D    GL%D    GC%D
 2015 148     1     0      0  0.0000  0.0000  0.0000  0.0000  0.0000 0.00000  0.000  0.000 24.782 19.436  0.0000  0.0000  0.0000
 2015 149     2     1      0  0.0000  0.0000  0.0000  0.0000  0.0000 0.00000  0.000  0.000 24.034 18.242  0.0000  0.0000  0.0000
 2015 150     3     2      0  0.0000  0.0000  0.0000  0.0000  0.0000 0.00000  0.000  0.000 25.605 19.400  0.0000  0.0000  0.0000
 2015 151     4     3      0  0.0000  0.0000  0.0000  0.0000  0.0000 0.00000  0.000  0.000 27.170 20.725  0.0000  0.0000  0.0000
 2015 152     5     4     37  0.0000  0.0035  0.0024  0.0007  0.0000 0.00000  3.921  7.836 26.350 20.424  0.0000  0.0000  0.0000
 2015 153     6     5     39  0.4823  0.0038  0.2927  0.0902  0.0462 0.00000  3.856  7.668 26.412 22.244  0.0000  0.0000  0.0000
 2015 154     7     6     42  0.5600  0.0039  0.3423  0.1098  0.0490 0.00000  3.804  7.522 25.524 21.563  0.0000  0.0000  0.0000
 2015 155     8     7     47  0.6783  0.0039  0.5085  0.1109  0.0537 0.00000  3.782  7.402 24.884 20.855  0.0000  0.0000  0.0000
 2015 156     9     8     51  0.7968  0.0042  0.4568  0.1711  0.0618 0.00000  3.731  7.310 24.883 20.854  0.0000  0.0000  0.0000
 2015 157    10     9     56  0.9457  0.0046  0.5854  0.1864  0.0740 0.00000  3.692  7.268 25.486 21.287  0.0000  0.0000  0.0000
 2015 158    11    10     62  1.0872  0.0051  0.6791  0.2108  0.0846 0.00000  3.654  7.265 25.461 21.400  0.0000  0.0000  0.0000
 2015 159    12    11     69  1.1908  0.0055  0.7332  0.2459  0.0895 0.00000  3.641  7.203 25.437 20.791  0.0000  0.0000  0.0000
 2015 160    13    12     77  1.3654  0.0060  0.9102  0.2547  0.1017 0.00000  3.655  7.113 25.621 20.770  0.0000  0.0000  0.0000
 2015 161    14    13     85  1.3759  0.0066  0.8208  0.2991  0.1037 0.00000  3.629  7.067 24.986 20.617  0.0000  0.0000  0.0000
 2015 162    15    14     95  1.8319  0.0075  1.1225  0.3895  0.1399 0.00000  3.618  7.046 25.885 21.516  0.0000  0.0000  0.0000
 2015 163    16    15    107  2.1006  0.0087  1.2864  0.3911  0.1628 0.00000  3.606  7.030 25.626 21.877  0.0000  0.0000  0.0000
 2015 164    17    16    119  2.2268  0.0093  1.2849  0.4085  0.1694 0.00000  3.568  6.918 26.036 21.221  0.0000  0.0000  0.0000
 2015 165    18    17    130  1.9486  0.0101  1.2652  0.3385  0.1578 0.00000  3.571  6.820 26.021 21.000  0.0000  0.0000  0.0000
 2015 166    19    18    146  2.8384  0.0114  1.6587  0.5626  0.2226 0.00000  3.563  6.840 26.448 21.840  0.0000  0.0000  0.0000
 2015 167    20    19    164  3.1669  0.0125  1.9422  0.6066  0.2404 0.00000  3.561  6.870 26.152 21.373  0.0000  0.0000  0.0000
 2015 168    21    20    183  3.6112  0.0146  2.2097  0.6928  0.2831 0.00000  3.556  6.780 26.219 21.921  0.0000  0.0000  0.0000
 2015 169    22    21    203  4.3269  0.0161  2.6143  0.8301  0.3291 0.00000  3.548  6.509 26.223 21.753  0.0000  0.0000  0.0000
 2015 170    23    22    228  4.5789  0.0169  2.6734  0.8995  0.3272 0.00000  3.522  6.515 24.951 20.894  0.0000  0.0000  0.0000
 2015 171    24    23    243  2.8734  0.0165  1.6216  0.5796  0.2112 0.00000  3.478  6.444 23.346 18.739  0.0000  0.0000  0.0000
 2015 172    25    24    257  2.6968  0.0180  1.5024  0.5535  0.2134 0.00000  3.430  6.358 22.489 19.223  0.0000  0.0000  0.0000
 2015 173    26    25    279  4.0475  0.0186  2.4669  0.8509  0.2824 0.00000  3.436  6.317 23.684 19.146  0.0000  0.0000  0.0000
 2015 174    27    26    310  5.5061  0.0214  3.3469  1.2203  0.3813 0.00000  3.456  6.378 24.070 20.048  0.0000  0.0000  0.0000
 2015 175    28    27    332  5.7511  0.0225  3.6025  1.2077  0.3810 0.00000  3.459  6.140 23.703 19.200  0.0000  0.0000  0.0000
 2015 176    29    28    353  6.3875  0.0239  4.0030  1.3304  0.4206 0.00000  3.464  5.872 24.137 19.152  0.0000  0.0000  0.0000
 2015 177    30    29    386  6.3355  0.0000  4.0820  0.9881  0.3946 0.36272  4.789  7.021 22.947 18.340  0.0000  0.0000  0.0000
 2015 178    31    30    425  6.6886  0.0319  3.9186  1.5038  0.4021 0.00000  4.617  7.056 22.262 17.861  0.0000  0.0000  0.0000
 2015 179    32    31    466  7.2760  0.0347  3.9847  1.7129  0.4441 0.00000  4.464  7.071 22.777 17.860  0.0000  0.0000  0.0000
 2015 180    33    32    518  8.7219  0.0411  5.3257  1.8820  0.5700 0.00000  4.337  7.092 23.711 19.034  0.0000  0.0000  0.0000
 2015 181    34    33    579  9.5495  0.0000  5.9495  1.3822  0.6316 0.82501  6.171  8.703 23.979 19.060  0.0000  0.0000  0.0000
 2015 182    35    34    639 10.3818  0.0700  6.5272  2.1441  0.7567 0.03860  5.930  8.594 25.518 19.946  0.0000  0.0000  0.0000
 2015 183    36    35    694 11.6779  0.0783  5.6269  2.5558  0.8606 0.10426  5.780  8.705 25.262 20.308  0.0000  0.0000  0.0000
 2015 184    37    36    752 12.4852  0.0839  8.5657  2.1880  0.9153 0.26665  6.018  9.210 25.268 20.142  0.0000  0.0000  0.0000
 2015 185    38    37    809 12.8733  0.0934  6.7818  2.6897  0.9558 0.30213  6.123  9.708 25.708 19.928  0.0000  0.0000  0.0000
 2015 186    39    38    860 12.3714  0.0996  7.1874  2.3389  0.9176 0.40858  6.387 10.353 25.606 19.274  0.0000  0.0000  0.0000
 2015 187    40    39    906 11.8657  0.1115  6.7491  2.2478  0.8966 0.43358  6.657 10.965 25.222 19.096  0.0000  0.0000  0.0000
 2015 188    41    40    932  8.4997  0.1171  4.7041  1.6709  0.6638 0.29760  6.878 11.321 21.852 18.134  0.0000  0.0000  0.0000
 2015 189    42    41    940  3.9976  0.1053  2.0703  0.8610  0.3920 0.05416  6.912 11.274 17.709 16.091  0.0000  0.0000  0.0000
 2015 190    43    42   1010 12.9169  0.1302  7.0909  2.5544  0.9072 0.58919  7.080 12.046 23.368 18.581  0.0000  0.0000  0.0000
 2015 191    44    43   1086 14.4111  0.0000  8.3514  2.0843  1.1722 1.34790  8.027 14.463 26.083 20.228  0.0000  0.0000  0.0000
 2015 192    45    44   1169 15.8588  0.2242  8.0367  3.3175  1.3571 0.67595  8.091 14.961 26.574 21.063  0.0000  0.0000  0.0000
 2015 193    46    45   1236 15.5309  0.2499  7.8926  3.2793  1.3061 0.62120  8.221 15.377 26.231 20.270  3.5950  2.8739 65.1573
 2015 194    47    46   1319 16.5502  0.0000  6.6771  2.0563  1.4586 4.40159 10.767 22.130 26.958 20.859  3.6098  2.9104 65.0283
 2015 195    48    47   1383 15.8015  0.4335  8.4730  3.3122  1.4240 0.39173 10.673 21.848 26.493 20.633  3.6067  2.9035 65.0547
 2015 196    49    48   1458 16.1514  0.4604  8.4568  3.6008  1.4711 0.17046 10.452 21.424 26.664 20.562  3.6048  2.8992 65.0706
 2015 197    50    49   1525 15.9318  0.4825  9.3530  3.3098  1.3988 0.05255 10.349 21.017 25.114 20.010  3.5981  2.8808 65.1311
 2015 198    51    50   1611 15.6809  0.0000  6.4090  1.9714  1.3413 4.36140 12.683 27.142 24.498 19.358  3.5890  2.8511 65.2176
 2015 199    52    51   1672 14.2179  0.6295  8.6353  3.0609  1.2187 0.00000 12.552 26.619 23.513 18.579  3.5789  2.8106 65.3215
 2015 200    53    52   1735 15.2912  0.6709  9.4074  3.2241  1.3803 0.00000 12.412 26.056 24.085 19.460  3.5778  2.8094 65.3295
 2015 201    54    53   1805 16.2439  0.7158 10.0513  3.3637  1.6377 0.00000 12.265 25.449 25.988 20.809  3.5855  2.8340 65.2563
 2015 202    55    54   1867 15.3109  0.7237  9.7387  3.1262  1.6068 0.00000 12.115 24.827 25.828 20.718  3.5903  2.8494 65.2115
 2015 203    56    55   1903  9.2251  0.7691  7.0161  1.4234  1.4560 0.00017 12.021 24.189 26.631 22.071  3.6016  2.8727 65.1174
 2015 204    57    56   1939  9.4651  0.8005  7.2475  1.4003  1.6109 0.00016 11.939 23.507 27.045 23.244  3.6162  2.8932 65.0053
 2015 205    58    57   2006 15.3144  0.4271  9.8197  2.8911  1.7166 0.11833 12.041 23.361 25.925 21.155  3.6167  2.8985 64.9968
 2015 206    59    58   2064 15.2122  0.7798  9.8703  2.9757  1.9068 0.00000 11.873 22.616 26.814 22.389  3.6221  2.9092 64.9524
 2015 207    60    59   2082 15.0243  0.7701  9.7810  2.9243  1.9316 0.00000 11.676 21.626 27.224 22.625  3.6274  2.9185 64.9102
 2015 208    61    60   2102 12.9659  0.7118  8.7749  2.4272  1.7364 0.00243 11.482 20.672 27.393 22.169  3.6300  2.9246 64.8877
 2015 209    62    61   2155 10.4634  0.0000  6.7729  1.3003  1.4643 0.37878 12.021 21.503 26.999 21.220  3.5672  3.0536 65.1513
 2015 210    63    62   2220 12.5441  0.0000  7.8343  2.0142  1.6428 0.47527 12.653 22.523 27.541 21.829  3.5631  3.0674 65.1630
 2015 211    64    63   2277 12.5188  0.7477  8.6030  2.4102  1.6286 0.00000 12.427 21.648 26.700 22.026  3.5703  3.0592 65.1266
 2015 212    65    64   2328 12.0239  0.7068  8.2751  2.3152  1.5593 0.00000 12.186 20.751 26.971 21.671  3.5753  3.0513 65.1030
 2015 213    66    65   2288 11.0195  0.0000  6.2580  1.0860  1.4501 1.54939 13.263 23.193 26.549 21.386  3.5231  3.1590 65.3219
 2015 214    67    66   2255  8.5349  0.5991  5.9824  1.5184  1.1970 0.01089 12.665 21.728 26.150 20.604  3.5147  3.1714 65.3616
 2015 215    68    67   2230  6.7929  0.5396  4.6897  1.2347  1.1513 0.00004 12.018 20.327 26.623 21.768  3.5195  3.1632 65.3399
 2015 216    69    68   2214  5.2917  0.2364  3.5061  0.6403  1.0560 0.08469 11.825 19.792 26.990 22.064  3.5007  3.2041 65.4165
 2015 217    70    69   2199  4.0163  0.4204  2.7519  0.6105  1.0062 0.00004 11.183 18.614 27.441 22.791  3.5044  3.1995 65.3979
 2015 218    71    70   2186  2.9250  0.3690  2.0059  0.3757  0.9203 0.00000 10.562 17.538 27.526 22.840  3.5070  3.1963 65.3847
 2015 219    72    71   2175  2.1396  0.3197  1.4376  0.1974  0.8904 0.00424  9.986 16.588 28.175 23.383  3.5094  3.1935 65.3727
 2015 220    73    72   2164  1.3788  0.2819  0.8745  0.1048  0.7322 0.00122  9.421 15.709 27.413 21.542  3.5103  3.1918 65.3690
 2015 221    74    73   2154  0.9912  0.2497  0.5048  0.0605  0.7038 0.00310  8.884 14.917 27.971 21.438  3.5109  3.1905 65.3664

*DSSAT Cropping System Model Ver. 4.7.5.007 -  MAR 01, 2026 21:01:02
@YEAR DOY   DAS   DAP   TWAD    PHAD    CMAD    CGRD    GRAD    MRAD    CHAD   CL%D   CS%D   TGNN   TGAV    GN%D    GL%D    GC%D
 2015 161     1     0      0  0.0000  0.0000  0.0000  0.0000  0.0000 0.00000  0.000  0.000 24.986 20.617  0.0000  0.0000  0.0000
 2015 162     2     1      0  0.0000  0.0000  0.0000  0.0000  0.0000 0.00000  0.000  0.000 25.885 21.516  0.0000  0.0000  0.0000
 2015 163     3     2      0  0.0000  0.0000  0.0000  0.0000  0.0000 0.00000  0.000  0.000 25.626 21.877  0.0000  0.0000  0.0000
 2015 164     4     3      0  0.0000  0.0000  0.0000  0.0000  0.0000 0.00000  0.000  0.000 26.036 21.221  0.0000  0.0000  0.0000
 2015 165     5     4     37  0.0000  0.0037  0.0025  0.0007  0.0000 0.00000  3.918  7.828 26.021 21.000  0.0000  0.0000  0.0000
 2015 166     6     5     39  0.4711  0.0037  0.2864  0.0868  0.0444 0.00000  3.855  7.665 26.448 21.840  0.0000  0.0000  0.0000
 2015 167     7     6     42  0.5414  0.0038  0.3307  0.1008  0.0479 0.00000  3.803  7.522 26.152 21.373  0.0000  0.0000  0.0000
 2015 168     8     7     45  0.6277  0.0041  0.3828  0.1178  0.0558 0.00000  3.757  7.391 26.219 21.921  0.0000  0.0000  0.0000
 2015 169     9     8     50  0.7830  0.0043  0.4821  0.1466  0.0654 0.00000  3.718  7.302 26.223 21.753  0.0000  0.0000  0.0000
 2015 170    10     9     55  0.8967  0.0044  0.6417  0.1510  0.0685 0.00000  3.731  7.271 24.951 20.894  0.0000  0.0000  0.0000
 2015 171    11    10     60  0.8992  0.0042  0.5433  0.1754  0.0599 0.00000  3.691  7.255 23.346 18.739  0.0000  0.0000  0.0000
 2015 172    12    11     66  1.0666  0.0048  0.6645  0.2081  0.0704 0.00000  3.668  7.225 22.489 19.223  0.0000  0.0000  0.0000
 2015 173    13    12     73  1.1817  0.0052  0.7329  0.2357  0.0790 0.00000  3.653  7.176 23.684 19.146  0.0000  0.0000  0.0000
 2015 174    14    13     81  1.4744  0.0061  0.8930  0.2936  0.1014 0.00000  3.633  7.121 24.070 20.048  0.0000  0.0000  0.0000
 2015 175    15    14     90  1.5105  0.0064  0.9910  0.3070  0.1001 0.00000  3.664  7.090 23.703 19.200  0.0000  0.0000  0.0000
 2015 176    16    15    101  1.8072  0.0071  1.2133  0.3424  0.1175 0.00000  3.693  7.077 24.137 19.152  0.0000  0.0000  0.0000
 2015 177    17    16    112  1.9179  0.0075  1.2456  0.3949  0.1172 0.00000  3.713  7.065 22.947 18.340  0.0000  0.0000  0.0000
 2015 178    18    17    125  2.1338  0.0080  1.4044  0.4187  0.1244 0.00000  3.731  7.063 22.262 17.861  0.0000  0.0000  0.0000
 2015 179    19    18    138  2.3839  0.0090  1.3081  0.5368  0.1403 0.00000  3.683  7.054 22.777 17.860  0.0000  0.0000  0.0000
 2015 180    20    19    154  2.9292  0.0108  1.6959  0.6082  0.1841 0.00000  3.645  7.007 23.711 19.034  0.0000  0.0000  0.0000
 2015 181    21    20    172  2.9358  0.0120  1.9908  0.5466  0.1922 0.00000  3.654  6.951 23.979 19.060  0.0000  0.0000  0.0000
 2015 182    22    21    192  3.4877  0.0140  2.2500  0.7044  0.2445 0.00000  3.679  6.962 25.518 19.946  0.0000  0.0000  0.0000
 2015 183    23    22    218  4.1146  0.0000  2.7303  0.6393  0.2887 0.11021  4.411  7.646 25.262 20.308  0.0000  0.0000  0.0000
 2015 184    24    23    244  4.6441  0.0207  2.9901  0.8422  0.3230 0.00000  4.321  7.541 25.268 20.142  0.0000  0.0000  0.0000
 2015 185    25    24    270  5.1821  0.0225  2.6597  1.0611  0.3596 0.00000  4.148  7.375 25.708 19.928  0.0000  0.0000  0.0000
 2015 186    26    25    301  5.2778  0.0231  3.0717  1.0211  0.3606 0.00000  4.051  7.324 25.606 19.274  0.0000  0.0000  0.0000
 2015 187    27    26    335  5.5624  0.0000  3.8112  0.8790  0.3790 0.03358  4.213  7.520 25.222 19.096  0.0000  0.0000  0.0000
 2015 188    28    27    361  4.4098  0.0276  2.7127  0.8409  0.2968 0.00000  4.130  7.454 21.852 18.134  0.0000  0.0000  0.0000
 2015 189    29    28    371  2.3193  0.0250  0.8524  0.5666  0.1768 0.00000  4.038  7.369 17.709 16.091  0.0000  0.0000  0.0000
 2015 190    30    29    413  7.1072  0.0309  4.2960  1.3357  0.4444 0.00000  3.962  7.348 23.368 18.581  0.0000  0.0000  0.0000
 2015 191    31    30    470  8.8927  0.0000  5.1755  1.1399  0.6308 1.15472  7.009  9.871 26.083 20.228  0.0000  0.0000  0.0000
 2015 192    32    31    522  9.8376  0.0696  6.3354  1.7523  0.7463 0.00000  6.692  9.413 26.574 21.063  0.0000  0.0000  0.0000
 2015 193    33    32    571 10.1616  0.0711  5.2303  2.0751  0.7469 0.00000  6.363  9.073 26.231 20.270  0.0000  0.0000  0.0000
 2015 194    34    33    628 11.4675  0.0772  7.9169  1.9867  0.8776 0.00000  6.305  8.803 26.958 20.859  0.0000  0.0000  0.0000
 2015 195    35    34    687 11.8108  0.0821  6.8419  2.3716  0.9015 0.00000  6.056  8.544 26.493 20.633  0.0000  0.0000  0.0000
 2015 196    36    35    744 12.6232  0.0867  7.6192  2.3821  0.9702 0.05161  5.980  8.469 26.664 20.562  0.0000  0.0000  0.0000
 2015 197    37    36    802 13.1991  0.0925  8.2488  2.5530  0.9611 0.16344  6.104  8.701 25.114 20.010  0.0000  0.0000  0.0000
 2015 198    38    37    868 13.3113  0.0975  7.7332  2.6754  0.9396 0.24493  6.122  9.060 24.498 19.358  0.0000  0.0000  0.0000
 2015 199    39    38    926 13.4328  0.1023  7.9201  2.5676  0.9050 0.35042  6.297  9.568 23.513 18.579  0.0000  0.0000  0.0000
 2015 200    40    39    989 14.7056  0.1216  8.3949  2.7939  1.0524 0.49353  6.555 10.265 24.085 19.460  0.0000  0.0000  0.0000
 2015 201    41    40   1040 12.8537  0.1474  6.8614  2.6694  1.1209 0.45041  6.808 10.880 25.988 20.809  0.0000  0.0000  0.0000
 2015 202    42    41   1117 15.6009  0.1599  8.6875  3.1185  1.2760 0.61813  6.971 11.560 25.828 20.718  0.0000  0.0000  0.0000
 2015 203    43    42   1202 17.6643  0.1945  9.6019  3.4699  1.5630 0.74580  7.178 12.297 26.631 22.071  0.0000  0.0000  0.0000
 2015 204    44    43   1287 18.1214  0.2354 10.9036  3.1334  1.7665 0.92535  7.589 13.254 27.045 23.244  0.0000  0.0000  0.0000
 2015 205    45    44   1355 17.9551  0.2383  9.0069  3.9399  1.5539 0.64262  7.624 13.590 25.925 21.155  0.0000  0.0000  0.0000
 2015 206    46    45   1444 18.2378  0.3053  9.3886  3.8690  1.7533 0.63401  7.643 13.956 26.814 22.389  0.0000  0.0000  0.0000
 2015 207    47    46   1535 18.7715  0.3511  9.9483  3.9585  1.8680 0.50689  7.643 14.149 27.224 22.625  3.6673  2.9884 64.5912
 2015 208    48    47   1627 19.2375  0.0000 10.6049  3.6081  1.8949 0.83687  8.118 15.253 27.393 22.169  3.6572  2.9802 64.6622
 2015 209    49    48   1687 15.0950  0.4254  8.4834  3.2760  1.5970 0.00087  8.006 14.885 26.999 21.220  3.6395  2.9576 64.7953
 2015 210    50    49   1765 18.7762  0.4538 10.6565  4.0157  1.9118 0.01278  7.906 14.513 27.541 21.829  3.6400  2.9600 64.7899
 2015 211    51    50   1846 18.9529  0.4848 11.1086  3.9803  1.9558 0.00000  7.807 14.112 26.700 22.026  3.6426  2.9640 64.7697
 2015 212    52    51   1932 16.5267  0.0000  7.8155  2.1857  1.8264 3.41903  9.568 18.891 26.971 21.671  3.6405  2.9618 64.7852
 2015 213    53    52   2004 17.9099  0.6376 10.9100  3.7521  1.8982 0.00000  9.454 18.384 26.549 21.386  3.6369  2.9569 64.8127
 2015 214    54    53   2070 17.2344  0.6253 10.8614  3.5301  1.7944 0.00000  9.338 17.878 26.150 20.604  3.6293  2.9433 64.8732
 2015 215    55    54   2147 17.5200  0.6529 11.1944  3.4961  1.9912 0.00000  9.224 17.342 26.623 21.768  3.6313  2.9470 64.8575
 2015 216    56    55   2239 17.8029  0.0000  8.1914  1.8341  2.0946 4.65934 11.647 23.639 26.990 22.064  3.5926  3.0368 65.0092
 2015 217    57    56   2309 17.3405  0.8947 11.4121  3.3677  2.2255 0.00000 11.517 22.932 27.441 22.791  3.6046  3.0301 64.9410
 2015 218    58    57   2373 17.3374  0.8867 11.2217  3.4531  2.2709 0.00000 11.367 22.202 27.526 22.840  3.6140  3.0252 64.8876
 2015 219    59    58   2438 17.2111  0.8814 11.1683  3.3800  2.3514 0.02403 11.213 21.471 28.175 23.383  3.6238  3.0220 64.8292
 2015 220    60    59   2506 14.0022  0.0000  8.3459  1.7007  1.8917 1.35216 12.162 23.472 27.413 21.542  3.5691  3.1293 65.0638
 2015 221    61    60   2584 15.4209  0.0000  9.5289  2.6662  1.9703 0.44794 12.675 24.213 27.971 21.438  3.5749  3.1114 65.0455
 2015 222    62    61   2659 16.4330  0.9877 10.9227  3.2268  2.2153 0.04061 12.473 23.369 28.296 22.942  3.5846  3.1005 64.9960
 2015 223    63    62   2726 13.9015  0.0000  8.3292  1.5754  1.8519 1.35115 13.480 25.386 26.255 21.769  3.5310  3.2088 65.2223
 2015 224    64    63   2794 14.9997  0.0000  9.3460  2.2097  1.9159 0.74483 14.233 26.521 26.423 21.865  3.5117  3.2475 65.3046
 2015 225    65    64   2866 14.3644  0.3445  9.4759  2.3922  1.8263 0.28058 14.552 26.699 25.953 21.638  3.4992  3.2703 65.3595
 2015 226    66    65   2810 13.6254  0.7106  9.2927  2.4056  1.7327 0.13595 14.208 25.554 25.721 21.334  3.4867  3.2915 65.4166
 2015 227    67    66   2780 11.5995  0.0000  6.5041  1.0898  1.8449 1.41543 15.073 27.378 27.943 23.589  3.4435  3.3875 65.5907
 2015 228    68    67   2749  8.3257  0.7550  5.7783  1.3337  1.4871 0.05039 14.486 26.121 27.988 22.552  3.4333  3.4105 65.6310
 2015 229    69    68   2724  6.3714  0.7718  4.4614  1.1691  1.2755 0.00004 13.735 24.705 26.779 22.282  3.4398  3.3981 65.6034
 2015 230    70    69   2706  4.7150  0.4567  3.1857  0.5553  1.1487 0.07983 13.328 23.935 27.295 22.239  3.4276  3.4236 65.6538
 2015 231    71    70   2688  3.7121  0.6146  2.4928  0.4996  1.3362 0.01415 12.625 22.737 29.171 25.613  3.4340  3.4152 65.6225
 2015 232    72    71   2672  2.4509  0.5399  1.7236  0.2890  1.0159 0.00400 11.940 21.613 27.987 22.891  3.4368  3.4103 65.6099
 2015 233    73    72   2658  1.8477  0.4794  1.1848  0.1419  1.0694 0.01302 11.298 20.600 29.299 24.411  3.4395  3.4061 65.5970
 2015 234    74    73   2644  1.2845  0.4341  0.6696  0.0802  1.0056 0.01207 10.666 19.648 29.746 24.158  3.4412  3.4033 65.5891

*DSSAT Cropping System Model Ver. 4.7.5.007 -  MAR 01, 2026 21:01:02
@YEAR DOY   DAS   DAP   TWAD    PHAD    CMAD    CGRD    GRAD    MRAD    CHAD   CL%D   CS%D   TGNN   TGAV    GN%D    GL%D    GC%D
 2016 132     1     0      0  0.0000  0.0000  0.0000  0.0000  0.0000 0.00000  0.000  0.000 28.189 23.476  0.0000  0.0000  0.0000
 2016 133     2     1      0  0.0000  0.0000  0.0000  0.0000  0.0000 0.00000  0.000  0.000 28.601 23.543  0.0000  0.0000  0.0000
 2016 134     3     2      0  0.0000  0.0000  0.0000  0.0000  0.0000 0.00000  0.000  0.000 28.886 24.557  0.0000  0.0000  0.0000
 2016 135     4     3      0  0.0000  0.0000  0.0000  0.0000  0.0000 0.00000  0.000  0.000 28.812 24.727  0.0000  0.0000  0.0000
 2016 136     5     4     37  0.0000  0.0045  0.0030  0.0009  0.0000 0.00000  3.900  7.791 26.475 24.191  0.0000  0.0000  0.0000
 2016 137     6     5     39  0.4478  0.0041  0.2863  0.0785  0.0500 0.00000  3.845  7.610 27.504 23.975  0.0000  0.0000  0.0000
 2016 138     7     6     42  0.6017  0.0041  0.3411  0.1146  0.0582 0.00000  3.778  7.457 27.115 23.242  0.0000  0.0000  0.0000
 2016 139     8     7     45  0.6807  0.0044  0.4097  0.1275  0.0650 0.00000  3.731  7.324 26.836 23.379  0.0000  0.0000  0.0000
 2016 140     9     8     50  0.9088  0.0047  0.5512  0.1680  0.0881 0.00000  3.690  7.252 28.918 24.321  0.0000  0.0000  0.0000
 2016 141    10     9     57  1.0336  0.0053  0.7245  0.1692  0.1011 0.00000  3.701  7.240 28.276 24.717  0.0000  0.0000  0.0000
 2016 142    11    10     62  1.1108  0.0057  0.6324  0.2251  0.1022 0.00000  3.661  7.158 27.755 23.610  0.0000  0.0000  0.0000
 2016 143    12    11     70  1.4078  0.0063  0.8484  0.2766  0.1254 0.00000  3.640  7.105 27.371 23.814  0.0000  0.0000  0.0000
 2016 144    13    12     78  1.3156  0.0061  0.8067  0.2650  0.0973 0.00000  3.620  7.065 23.538 20.845  0.0000  0.0000  0.0000
 2016 145    14    13     89  1.8484  0.0069  1.2038  0.3811  0.1373 0.00000  3.660  7.056 25.960 21.473  0.0000  0.0000  0.0000
 2016 146    15    14    101  2.2326  0.0083  1.3981  0.4593  0.1769 0.00000  3.674  7.052 27.207 22.446  0.0000  0.0000  0.0000
 2016 147    16    15    116  2.5898  0.0102  1.5170  0.5533  0.2208 0.00000  3.643  7.041 27.369 23.643  0.0000  0.0000  0.0000
 2016 148    17    16    134  3.0592  0.0105  2.0328  0.6148  0.2281 0.00000  3.673  7.039 26.708 21.776  0.0000  0.0000  0.0000
 2016 149    18    17    155  3.6494  0.0133  2.2844  0.7490  0.3027 0.00000  3.688  7.035 27.663 23.388  0.0000  0.0000  0.0000
 2016 150    19    18    178  3.9579  0.0147  2.4846  0.8207  0.3016 0.00000  3.694  7.045 26.174 22.107  0.0000  0.0000  0.0000
 2016 151    20    19    209  4.7648  0.0167  3.3958  0.8962  0.3611 0.00000  3.719  7.063 26.981 22.019  0.0000  0.0000  0.0000
 2016 152    21    20    244  5.6889  0.0207  3.7275  1.1527  0.4628 0.00000  3.734  7.070 27.855 23.031  0.0000  0.0000  0.0000
 2016 153    22    21    285  6.7038  0.0000  4.3117  1.0783  0.5756 0.20447  4.669  7.933 28.820 23.756  0.0000  0.0000  0.0000
 2016 154    23    22    324  6.6964  0.0329  4.2390  1.2675  0.5472 0.00000  4.545  7.795 27.494 22.569  0.0000  0.0000  0.0000
 2016 155    24    23    374  7.7058  0.0359  5.4079  1.4088  0.5949 0.00000  4.433  7.693 26.854 21.861  0.0000  0.0000  0.0000
 2016 156    25    24    427  9.1579  0.0448  5.7639  1.7379  0.7847 0.00000  4.333  7.591 27.688 23.488  0.0000  0.0000  0.0000
 2016 157    26    25    490 10.8564  0.0524  6.5544  1.9938  1.0000 0.00000  4.209  7.495 29.159 24.546  0.0000  0.0000  0.0000
 2016 158    27    26    552 11.9546  0.0566  6.1238  2.4461  1.0564 0.00000  4.079  7.410 29.040 23.671  0.0000  0.0000  0.0000
 2016 159    28    27    607 12.2896  0.0644  8.1791  2.3453  1.0663 0.00000  4.205  7.329 27.068 23.386  0.0000  0.0000  0.0000
 2016 160    29    28    670 12.7153  0.0686  7.9718  2.4647  1.0270 0.00000  4.210  7.269 25.762 22.253  0.0000  0.0000  0.0000
 2016 161    30    29    740 13.2807  0.0666  9.2230  2.4977  0.9217 0.00000  4.268  7.235 24.386 20.017  0.0000  0.0000  0.0000
 2016 162    31    30    809 15.1217  0.0915  9.6328  2.7642  1.3839 0.05591  4.369  7.306 27.155 23.819  0.0000  0.0000  0.0000
 2016 163    32    31    874 14.9310  0.0834  7.8357  3.1983  1.0493 0.14710  4.453  7.570 23.684 20.038  0.0000  0.0000  0.0000
 2016 164    33    32    933 13.8981  0.0812  8.3857  2.6662  0.8785 0.25649  4.685  8.007 22.359 18.129  0.0000  0.0000  0.0000
 2016 165    34    33    994 14.4149  0.0956  8.5378  2.7108  1.0179 0.36639  4.946  8.557 24.911 18.790  0.0000  0.0000  0.0000
 2016 166    35    34   1076 16.2135  0.1244  9.4045  3.0689  1.2791 0.53895  5.176  9.263 25.410 20.734  0.0000  0.0000  0.0000
 2016 167    36    35   1164 17.9899  0.1530 10.7429  3.4152  1.5051 0.72105  5.497 10.081 25.752 21.695  0.0000  0.0000  0.0000
 2016 168    37    36   1260 18.4377  0.1705 11.2574  3.4357  1.4797 0.82879  5.822 10.907 25.385 20.847  0.0000  0.0000  0.0000
 2016 169    38    37   1356 18.6153  0.1932  9.5508  4.0379  1.5123 0.69039  5.952 11.455 25.785 20.524  0.0000  0.0000  0.0000
 2016 170    39    38   1453 19.3918  0.2220 11.7927  3.4975  1.6782 0.96335  6.308 12.237 26.632 21.097  0.0000  0.0000  0.0000
 2016 171    40    39   1558 20.0061  0.2654 10.4604  4.1756  1.8200 0.74623  6.415 12.688 26.470 21.725  0.0000  0.0000  0.0000
 2016 172    41    40   1643 19.9473  0.3230  9.5976  4.4883  1.8241 0.54262  6.475 12.898 26.170 21.425  0.0000  0.0000  0.0000
 2016 173    42    41   1725 19.5668  0.3744 10.6113  4.1353  1.9304 0.45408  6.558 13.016 26.646 22.039  3.6475  2.9713 64.7320
 2016 174    43    42   1806 19.2677  0.4388 10.6044  4.0951  2.0815 0.02243  6.459 12.687 26.494 23.056  3.6719  2.9886 64.5620
 2016 175    44    43   1893 19.4138  0.0000 11.0516  3.8562  2.1156 0.11198  6.615 12.852 26.994 22.834  3.6733  2.9907 64.5511
 2016 176    45    44   1981 20.3696  0.4912 11.6933  4.2693  2.1645 0.00000  6.529 12.489 26.923 22.453  3.6685  2.9881 64.5838
 2016 177    46    45   2083 20.0894  0.0000 10.3561  3.2715  2.0774 2.44233  7.597 15.363 25.747 21.862  3.6592  2.9800 64.6498
 2016 178    47    46   2169 19.0373  0.5915 11.5637  3.9441  1.8740 0.00000  7.500 14.943 25.129 20.487  3.6424  2.9538 64.7814
 2016 179    48    47   2250 18.6443  0.5959 11.7442  3.7460  1.8049 0.00000  7.405 14.521 24.010 20.056  3.6289  2.9294 64.8898
 2016 180    49    48   2332 17.8503  0.5920 11.4549  3.5192  1.7828 0.00000  7.308 14.098 24.783 19.693  3.6183  2.9071 64.9783
 2016 181    50    49   2431 17.9008  0.0000  9.9204  2.6493  1.8841 2.32632  8.388 16.888 24.726 20.255  3.6139  2.9007 65.0121
 2016 182    51    50   2497 15.5739  0.7202 10.4154  2.9568  1.7953 0.00000  8.280 16.374 24.856 20.075  3.6102  2.8943 65.0417
 2016 183    52    51   2572 18.3596  0.7452 11.9217  3.5289  2.1535 0.00000  8.169 15.831 25.747 21.309  3.6122  2.9006 65.0230
 2016 184    53    52   2656 16.4927  0.0000  8.9391  1.9667  1.9265 2.78119  9.479 19.166 24.934 20.290  3.5816  2.9566 65.1584
 2016 185    54    53   2740 17.9226  0.0000 10.9534  2.8598  2.2705 0.83818 10.061 20.224 26.077 22.052  3.5893  2.9583 65.1084
 2016 186    55    54   2812 16.8450  0.9459 11.3205  3.2113  2.0505 0.00000  9.903 19.519 25.116 21.159  3.5925  2.9555 65.0911
 2016 187    56    55   2885 16.5919  0.9476 11.2621  3.1082  2.1502 0.00000  9.732 18.788 25.775 21.920  3.5975  2.9566 65.0589
 2016 188    57    56   2971 16.2418  0.0000  9.3854  1.9792  2.2509 1.74010 10.702 20.942 26.929 22.627  3.5643  3.0398 65.1835
 2016 189    58    57   3056 15.8757  0.0000  9.4630  2.3695  1.9512 1.23672 11.457 22.468 25.895 20.800  3.5594  3.0470 65.2068
 2016 190    59    58   3133 16.3513  0.7689 10.8197  2.9393  2.2376 0.14355 11.465 22.074 26.976 22.568  3.5673  3.0426 65.1619
 2016 191    60    59   3220 16.0867  0.0000  7.6182  1.1039  2.3105 4.13146 13.428 26.791 28.099 23.002  3.5203  3.1496 65.3483
 2016 192    61    60   3156 15.8944  0.0000  8.5813  1.5089  2.4487 2.55094 14.466 29.012 28.566 23.950  3.4882  3.2306 65.4682
 2016 193    62    61   3109 12.8169  0.4711  8.2870  1.7094  2.2123 0.34168 14.450 28.620 28.887 24.304  3.4567  3.3097 65.5858
 2016 194    63    62   3072  9.8561  1.1152  6.9042  1.7201  1.7469 0.03199 13.772 27.216 27.676 22.886  3.4481  3.3332 65.6160
 2016 195    64    63   3045  7.2070  0.2477  4.4796  0.7204  1.5756 0.30382 13.827 27.164 28.265 23.267  3.4251  3.3850 65.7079
 2016 196    65    64   3021  5.4121  0.9253  3.8920  0.8461  1.3725 0.01831 13.136 25.904 27.954 22.748  3.4235  3.3910 65.7122
 2016 197    66    65   3000  4.0242  0.8528  2.8672  0.6329  1.3206 0.01313 12.440 24.684 28.364 23.536  3.4287  3.3831 65.6873
 2016 198    67    66   2981  2.8297  0.7612  2.0517  0.3775  1.1787 0.01164 11.774 23.547 28.322 23.045  3.4323  3.3774 65.6708
 2016 199    68    67   2964  1.7795  0.7028  1.4581  0.1881  0.9104 0.00000 11.115 22.439 24.459 21.077  3.4338  3.3737 65.6650
 2016 200    69    68   2948  1.1023  0.6153  0.8735  0.1046  0.7903 0.00000 10.498 21.427 25.515 19.476  3.4345  3.3709 65.6635

*DSSAT Cropping System Model Ver. 4.7.5.007 -  MAR 01, 2026 21:01:02
@YEAR DOY   DAS   DAP   TWAD    PHAD    CMAD    CGRD    GRAD    MRAD    CHAD   CL%D   CS%D   TGNN   TGAV    GN%D    GL%D    GC%D
 2016 154     1     0      0  0.0000  0.0000  0.0000  0.0000  0.0000 0.00000  0.000  0.000 27.494 22.569  0.0000  0.0000  0.0000
 2016 155     2     1      0  0.0000  0.0000  0.0000  0.0000  0.0000 0.00000  0.000  0.000 26.854 21.861  0.0000  0.0000  0.0000
 2016 156     3     2      0  0.0000  0.0000  0.0000  0.0000  0.0000 0.00000  0.000  0.000 27.688 23.488  0.0000  0.0000  0.0000
 2016 157     4     3      0  0.0000  0.0000  0.0000  0.0000  0.0000 0.00000  0.000  0.000 29.159 24.546  0.0000  0.0000  0.0000
 2016 158     5     4     37  0.0000  0.0041  0.0028  0.0009  0.0000 0.00000  3.908  7.808 29.040 23.671  0.0000  0.0000  0.0000
 2016 159     6     5     39  0.4576  0.0041  0.2748  0.0879  0.0485 0.00000  3.839  7.631 27.068 23.386  0.0000  0.0000  0.0000
 2016 160     7     6     42  0.5447  0.0040  0.3312  0.1171  0.0505 0.00000  3.785  7.481 25.762 22.253  0.0000  0.0000  0.0000
 2016 161     8     7     45  0.6438  0.0036  0.3979  0.1350  0.0486 0.00000  3.750  7.372 24.386 20.017  0.0000  0.0000  0.0000
 2016 162     9     8     50  0.8163  0.0047  0.4971  0.1689  0.0777 0.00000  3.704  7.277 27.155 23.819  0.0000  0.0000  0.0000
 2016 163    10     9     55  0.8869  0.0042  0.5564  0.1776  0.0630 0.00000  3.672  7.252 23.684 20.038  0.0000  0.0000  0.0000
 2016 164    11    10     60  0.8704  0.0040  0.5509  0.1729  0.0550 0.00000  3.646  7.246 22.359 18.129  0.0000  0.0000  0.0000
 2016 165    12    11     65  0.9876  0.0046  0.6120  0.2036  0.0681 0.00000  3.635  7.193 24.911 18.790  0.0000  0.0000  0.0000
 2016 166    13    12     73  1.2592  0.0057  0.7752  0.2589  0.0940 0.00000  3.623  7.143 25.410 20.734  0.0000  0.0000  0.0000
 2016 167    14    13     82  1.5842  0.0066  0.9723  0.3256  0.1219 0.00000  3.612  7.107 25.752 21.695  0.0000  0.0000  0.0000
 2016 168    15    14     92  1.8532  0.0071  1.1430  0.4202  0.1327 0.00000  3.607  7.091 25.385 20.847  0.0000  0.0000  0.0000
 2016 169    16    15    105  2.1104  0.0078  1.3759  0.4430  0.1490 0.00000  3.646  7.082 25.785 20.524  0.0000  0.0000  0.0000
 2016 170    17    16    119  2.4915  0.0091  1.4870  0.5565  0.1830 0.00000  3.630  7.076 26.632 21.097  0.0000  0.0000  0.0000
 2016 171    18    17    137  2.9708  0.0109  2.0208  0.5963  0.2232 0.00000  3.665  7.079 26.470 21.725  0.0000  0.0000  0.0000
 2016 172    19    18    157  3.3908  0.0124  2.1690  0.7076  0.2496 0.00000  3.689  7.079 26.170 21.425  0.0000  0.0000  0.0000
 2016 173    20    19    180  3.8935  0.0148  2.4071  0.8281  0.2997 0.00000  3.679  7.079 26.646 22.039  0.0000  0.0000  0.0000
 2016 174    21    20    207  4.5476  0.0182  2.9930  0.9324  0.3708 0.00000  3.699  7.068 26.494 23.056  0.0000  0.0000  0.0000
 2016 175    22    21    238  5.3474  0.0206  3.3767  1.1300  0.4300 0.00000  3.715  7.062 26.994 22.834  0.0000  0.0000  0.0000
 2016 176    23    22    278  6.4093  0.0000  4.0601  1.0320  0.4974 0.34310  5.247  8.423 26.923 22.453  0.0000  0.0000  0.0000
 2016 177    24    23    322  7.1504  0.0349  4.7211  1.4388  0.5322 0.00000  5.045  8.186 25.747 21.862  0.0000  0.0000  0.0000
 2016 178    25    24    369  7.5463  0.0000  5.0894  1.3025  0.5210 0.04685  5.119  8.274 25.129 20.487  0.0000  0.0000  0.0000
 2016 179    26    25    419  8.2733  0.0415  5.4168  1.7137  0.5519 0.00000  4.947  8.087 24.010 20.056  0.0000  0.0000  0.0000
 2016 180    27    26    471  8.8121  0.0449  5.6586  1.8437  0.5926 0.00000  4.801  7.936 24.783 19.693  0.0000  0.0000  0.0000
 2016 181    28    27    530  9.9393  0.0517  6.2509  2.1257  0.6917 0.00000  4.646  7.805 24.726 20.255  0.0000  0.0000  0.0000
 2016 182    29    28    592  9.8944  0.0565  7.0518  1.8039  0.7083 0.00000  4.565  7.693 24.856 20.075  0.0000  0.0000  0.0000
 2016 183    30    29    656 12.5839  0.0672  8.0168  2.4119  0.9515 0.00000  4.541  7.586 25.747 21.309  0.0000  0.0000  0.0000
 2016 184    31    30    719 12.5090  0.0701  7.2227  2.4847  0.9030 0.00000  4.474  7.494 24.934 20.290  0.0000  0.0000  0.0000
 2016 185    32    31    791 14.7304  0.0000  8.9078  2.0325  1.1866 1.36923  6.647  9.204 26.077 22.052  0.0000  0.0000  0.0000
 2016 186    33    32    862 14.6868  0.1191  9.4346  2.6772  1.1352 0.02750  6.490  8.946 25.116 21.159  0.0000  0.0000  0.0000
 2016 187    34    33    933 15.6567  0.1328  8.4996  3.0775  1.2933 0.14381  6.379  8.960 25.775 21.920  0.0000  0.0000  0.0000
 2016 188    35    34    986 16.4515  0.1469  7.9144  3.4077  1.4581 0.25046  6.467  9.163 26.929 22.627  0.0000  0.0000  0.0000
 2016 189    36    35   1065 16.8070  0.1430 11.7412  2.6938  1.3222 0.52847  6.746  9.772 25.895 20.800  0.0000  0.0000  0.0000
 2016 190    37    36   1159 18.1515  0.1801 11.0359  3.0986  1.6227 0.64479  6.874 10.412 26.976 22.568  0.0000  0.0000  0.0000
 2016 191    38    37   1251 18.9595  0.2060  9.4163  3.7390  1.7944 0.60963  6.892 10.903 28.099 23.002  0.0000  0.0000  0.0000
 2016 192    39    38   1352 20.2961  0.0000 12.0102  2.9904  2.0514 1.31951  7.528 12.458 28.566 23.950  0.0000  0.0000  0.0000
 2016 193    40    39   1455 20.3154  0.2946 11.6918  3.3870  2.1644 0.90928  7.686 13.038 28.887 24.304  0.0000  0.0000  0.0000
 2016 194    41    40   1561 21.0601  0.3092  9.7157  4.3546  2.0556 0.63917  7.612 13.285 27.676 22.886  0.0000  0.0000  0.0000
 2016 195    42    41   1642 20.7439  0.3699  9.7712  4.0709  2.1599 0.59693  7.689 13.499 28.265 23.267  0.0000  0.0000  0.0000
 2016 196    43    42   1740 21.5638  0.0000 11.0757  3.3682  2.1773 2.29763  8.676 15.935 27.954 22.748  3.6716  2.9910 64.5615
 2016 197    44    43   1838 21.7916  0.5321 11.9915  4.0079  2.3650 0.44012  8.653 15.867 28.364 23.536  3.6932  2.9976 64.4201
 2016 198    45    44   1934 21.6368  0.5640 11.0903  4.4357  2.3396 0.03321  8.422 15.437 28.322 23.045  3.6873  2.9967 64.4576
 2016 199    46    45   2022 20.1339  0.5628 11.9748  3.8047  1.9192 0.00000  8.319 15.048 24.459 21.077  3.6555  2.9649 64.6880
 2016 200    47    46   2103 18.6040  0.5369 11.0282  3.6077  1.7283 0.00000  8.212 14.678 25.515 19.476  3.6273  2.9098 64.9193
 2016 201    48    47   2207 20.3070  0.0000 10.3849  3.1530  2.1235 2.65166  9.328 17.633 26.900 21.377  3.6271  2.9199 64.9107
 2016 202    49    48   2294 19.9883  0.7200 12.2048  3.9184  2.0902 0.00000  9.205 17.154 26.272 21.058  3.6244  2.9215 64.9259
 2016 203    50    49   2372 20.1114  0.7473 12.5850  3.7920  2.2597 0.00000  9.080 16.655 27.038 21.753  3.6277  2.9308 64.8959
 2016 204    51    50   2484 19.7758  0.0000 10.0274  2.5861  2.2175 3.60783 10.598 20.611 26.660 21.408  3.6277  2.9336 64.8934
 2016 205    52    51   2561 18.8188  0.9537 12.0883  3.4688  2.4759 0.02472 10.460 19.998 27.957 22.876  3.6360  2.9439 64.8309
 2016 206    53    52   2644 20.6442  1.0049 13.0893  3.7518  2.9233 0.01371 10.311 19.330 28.350 24.547  3.6519  2.9525 64.7233
 2016 207    54    53   2718 19.4088  0.9273 12.5603  3.6044  2.4218 0.00000 10.153 18.685 26.875 21.999  3.6511  2.9548 64.7257
 2016 208    55    54   2815 19.6792  0.0000 10.5182  2.5671  2.6208 2.91702 11.516 21.984 27.251 23.065  3.6496  2.9714 64.7189
 2016 209    56    55   2893 19.3249  1.1048 12.4949  3.6332  2.6736 0.05231 11.333 21.243 28.452 23.331  3.6543  2.9744 64.6859
 2016 210    57    56   2976 18.7844  1.0702 12.3927  3.5253  2.5022 0.01518 11.124 20.469 27.774 22.686  3.6559  2.9760 64.6747
 2016 211    58    57   3075 18.6637  0.0000 10.5018  2.4326  2.5172 2.09224 12.214 22.901 27.726 22.913  3.6272  3.0407 64.7890
 2016 212    59    58   3165 18.0513  0.4277 11.6430  3.1346  2.3333 0.28899 12.440 22.983 26.337 22.284  3.6298  3.0353 64.7787
 2016 213    60    59   3240 16.5402  1.1582 11.3500  3.1927  1.9879 0.00000 12.175 22.099 25.749 20.586  3.6277  3.0244 64.8024
 2016 214    61    60   3327 17.0360  0.2358 11.0302  2.9128  2.1141 0.34367 12.500 22.397 25.859 21.456  3.6275  3.0193 64.8090
 2016 215    62    61   3272 16.7910  0.0000  8.1638  1.3228  2.1028 4.06684 14.034 26.376 25.836 21.571  3.5737  3.1272 65.0370
 2016 216    63    62   3224 12.8252  0.4099  8.5325  1.7169  1.8518 0.29701 14.007 25.965 26.888 21.580  3.5321  3.2103 65.2139
 2016 217    64    63   3187 10.6645  1.0812  7.3995  1.8822  1.8529 0.00908 13.290 24.515 27.569 23.162  3.5277  3.2240 65.2280
 2016 218    65    64   3164  8.1685  0.1603  5.0543  0.8146  1.7253 0.30609 13.412 24.566 27.848 23.960  3.5013  3.2831 65.3336
 2016 219    66    65   3140  5.9619  0.8986  4.2072  0.9817  1.5123 0.00085 12.673 23.259 27.886 23.684  3.5037  3.2814 65.3204
 2016 220    67    66   3119  4.1433  0.7769  2.9586  0.6442  1.2651 0.00056 11.970 22.067 27.524 22.626  3.5064  3.2766 65.3086
 2016 221    68    67   3100  3.0254  0.6485  2.0873  0.3699  1.2439 0.02133 11.360 21.064 28.818 23.328  3.5095  3.2713 65.2942
 2016 222    69    68   3083  2.1929  0.5854  1.4402  0.1725  1.2449 0.02419 10.774 20.132 29.659 24.236  3.5121  3.2674 65.2820
 2016 223    70    69   3067  1.4946  0.5726  0.9018  0.1080  1.1097 0.00708 10.142 19.157 28.737 23.451  3.5133  3.2655 65.2766
