*GROWTH ASPECTS OUTPUT FILE

*DSSAT Cropping System Model Ver. 4.7.5.007 -  MAR 01, 2026 21:01:02
!                                                                                                                                                                                                                                                    Root Dens. (cm/cm3) by soil depth (cm):
!                                                                                                                                                                                                                                                   0-10   10-20   20-30   30-40   40-50   50-60   60-70   70-80   80-90
@YEAR DOY   DAS   DAP   L#SD   GSTD   LAID   LWAD   SWAD   GWAD   RWAD   VWAD   CWAD   G#AD    GWGD   HIAD   PWAD   P#AD   WSPD   WSGD   NSTD  PST1A  PST2A   KSTD   EWSD    LN%D   SH%D   HIPD   PWDD   PWTD   SLAD   CHTD   CWID   NWAD   RDPD    RL1D    RL2D    RL3D    RL4D    RL5D    RL6D    RL7D    RL8D    RL9D    SNW0C   SNW1C
 2015 103     1     0    0.0      0  0.000      0      0      0      0      0      0      0     0.0  0.000      0      0  0.000  0.000  0.000  0.000  0.000  0.000  0.000    0.00   0.00   0.00      0      0    0.0   0.00   0.00    0.0   0.00    0.00    0.00    0.00    0.00    0.00    0.00    0.00    0.00    0.00        0       0
 2015 104     2     1    0.0      0  0.000      0      0      0      0      0      0      0     0.0  0.000      0      0  0.000  0.000  0.000  0.000  0.000  0.000  0.000    0.00   0.00   0.00      0      0    0.0   0.00   0.00    0.0   0.00    0.00    0.00    0.00    0.00    0.00    0.00    0.00    0.00    0.00        0       0
 2015 105     3     2    0.0      0  0.000      0      0      0      0      0      0      0     0.0  0.000      0      0  0.000  0.000  0.000  0.000  0.000  0.000  0.000    0.00   0.00   0.00      0      0    0.0   0.00   0.00    0.0   0.00    0.00    0.00    0.00    0.00    0.00    0.00    0.00    0.00    0.00        0       0
 2015 106     4     3    0.0      0  0.000      0      0      0      0      0      0      0     0.0  0.000      0      0  0.000  0.000  0.000  0.000  0.000  0.000  0.000    0.00   0.00   0.00      0      0    0.0   0.00   0.00    0.0   0.00    0.00    0.00    0.00    0.00    0.00    0.00    0.00    0.00    0.00        0       0
 2015 107     5     4    0.2      0  0.028     13      6      0     18     19     19      0     0.0  0.000      0      0  0.000  0.000  0.000  0.000  0.000  0.000  0.000    3.84   0.00   0.00      0      0  216.6   0.04   0.03    4.5   0.27    0.07    0.07    0.03    0.00    0.00    0.00    0.00    0.00    0.00        0       1
 2015 108     6     5    0.5      0  0.037     15      6      0     19     21     21      0     0.0  0.000      0      0  0.000  0.000  0.000  0.000  0.000  0.000  0.000    3.85   0.00   0.00      0      0  242.4   0.05   0.03    4.4   0.29    0.07    0.07    0.03    0.00    0.00    0.00    0.00    0.00    0.00        0       1
 2015 109     7     6    0.8      0  0.048     18      6      0     19     24     24      0     0.0  0.000      0      0  0.000  0.000  0.000  0.000  0.000  0.000  0.000    3.85   0.00   0.00      0      0  267.9   0.06   0.04    4.3   0.31    0.07    0.07    0.03    0.00    0.00    0.00    0.00    0.00    0.00        0       2
 2015 110     8     7    1.1      0  0.064     21      7      0     19     28     28      0     0.0  0.000      0      0  0.000  0.000  0.000  0.000  0.000  0.000  0.013    3.81   0.00   0.00      0      0  301.9   0.07   0.04    4.2   0.34    0.07    0.07    0.04    0.00    0.00    0.00    0.00    0.00    0.00        0       2
 2015 111     9     8    1.4      0  0.079     25      8      0     21     33     33      0     0.0  0.000      0      0  0.000  0.000  0.000  0.000  0.000  0.000  0.000    3.78   0.00   0.00      0      0  321.7   0.08   0.05    4.2   0.36    0.07    0.07    0.04    0.00    0.00    0.00    0.00    0.00    0.00        0       3
 2015 112    10     9    1.7      0  0.092     28     10      0     22     38     38      0     0.0  0.000      0      0  0.000  0.000  0.000  0.000  0.000  0.000  0.000    3.83   0.00   0.00      0      0  331.3   0.09   0.06    4.1   0.38    0.08    0.07    0.04    0.00    0.00    0.00    0.00    0.00    0.00        0       3
 2015 113    11    10    2.0      0  0.117     33     11      0     22     44     44      0     0.0  0.000      0      0  0.000  0.000  0.000  0.000  0.000  0.000  0.000    3.80   0.00   0.00      0      0  352.1   0.10   0.07    4.2   0.40    0.08    0.08    0.04    0.00    0.00    0.00    0.00    0.00    0.00        1       4
 2015 114    12    11    2.3      0  0.146     40     13      0     23     53     53      0     0.0  0.000      0      0  0.000  0.000  0.000  0.000  0.000  0.000  0.000    3.78   0.00   0.00      0      0  366.6   0.11   0.07    4.3   0.42    0.08    0.08    0.04    0.00    0.00    0.00    0.00    0.00    0.00        1       4
 2015 115    13    12    2.6      0  0.179     48     15      0     24     63     63      0     0.0  0.000      0      0  0.000  0.000  0.000  0.000  0.000  0.000  0.000    3.78   0.00   0.00      0      0  373.3   0.12   0.08    4.2   0.44    0.09    0.08    0.05    0.01    0.00    0.00    0.00    0.00    0.00        2       5
 2015 116    14    13    2.9      0  0.218     57     18      0     25     75     75      0     0.0  0.000      0      0  0.000  0.000  0.000  0.000  0.000  0.000  0.000    3.76   0.00   0.00      0      0  381.7   0.13   0.09    4.3   0.46    0.09    0.08    0.05    0.01    0.00    0.00    0.00    0.00    0.00        2       5
 2015 117    15    14    3.1      0  0.234     65     20      0     31     84     84      0     0.0  0.000      0      0  0.000  0.326  0.000  0.000  0.000  0.000  0.000    3.79   0.00   0.00      0      0  362.2   0.13   0.10    4.5   0.48    0.11    0.10    0.06    0.01    0.00    0.00    0.00    0.00    0.00        3       6
 2015 118    16    15    3.3      0  0.273     77     23      0     34    100    100      0     0.0  0.000      0      0  0.000  0.000  0.091  0.000  0.000  0.000  0.000    3.55   0.00   0.00      0      0  356.5   0.14   0.11    5.2   0.50    0.12    0.10    0.07    0.02    0.00    0.00    0.00    0.00    0.00        4       6
 2015 119    17    16    3.6      0  0.305     89     26      0     38    115    115      0     0.0  0.000      0      0  0.000  0.132  0.000  0.000  0.000  0.000  0.000    3.60   0.00   0.00      0      0  343.5   0.15   0.12    5.3   0.50    0.13    0.11    0.07    0.02    0.00    0.00    0.00    0.00    0.00        5       7
 2015 120    18    17    3.6      0  0.305     89     26      0     38    115    115      0     0.0  0.000      0      0  0.000  0.000  0.000  0.000  0.000  0.000  0.000    3.60   0.00   0.00      0      0  343.5   0.15   0.12    5.1   0.50    0.13    0.11    0.07    0.02    0.00    0.00    0.00    0.00    0.00        5       7
 2015 121    19    18    3.8      0  0.356    104     31      0     39    135    135      0     0.0  0.000      0      0  0.000  0.000  0.000  0.000  0.000  0.000  0.000    3.60   0.00   0.00      0      0  341.7   0.15   0.13    5.1   0.50    0.13    0.12    0.08    0.02    0.01    0.00    0.00    0.00    0.00        5       8
 2015 122    20    19    4.0      0  0.395    118     35      0     44    153    153      0     0.0  0.000      0      0  0.000  0.183  0.000  0.000  0.000  0.000  0.000    3.78   0.00   0.00      0      0  334.5   0.16   0.14    5.0   0.50    0.15    0.13    0.08    0.03    0.01    0.00    0.00    0.00    0.00        5       9
 2015 123    21    20    4.2      0  0.421    130     38      0     53    168    168      0     0.0  0.000      0      0  0.054  0.369  0.000  0.000  0.000  0.000  0.000    3.82   0.00   0.00      0      0  325.2   0.16   0.14    5.0   0.50    0.18    0.15    0.10    0.04    0.01    0.00    0.00    0.00    0.00        5      10
 2015 124    22    21    4.4      0  0.502    148     44      0     54    191    191      0     0.0  0.000      0      0  0.000  0.000  0.000  0.000  0.000  0.000  0.000    3.78   0.00   0.00      0      0  339.8   0.17   0.16    5.1   0.50    0.18    0.16    0.10    0.04    0.01    0.00    0.00    0.00    0.00        7      11
 2015 125    23    22    4.7      0  0.608    174     52      0     56    226    226      0     0.0  0.000      0      0  0.000  0.000  0.000  0.000  0.000  0.000  0.000    3.57   0.00   0.00      0      0  348.4   0.18   0.17    6.0   0.50    0.19    0.16    0.11    0.04    0.01    0.00    0.00    0.00    0.00        8      12
 2015 126    24    23    4.9      0  0.705    196     58      0     61    255    255      0     0.0  0.000      0      0  0.000  0.000  0.120  0.000  0.000  0.000  0.000    3.38   0.00   0.00      0      0  358.6   0.20   0.19    7.0   0.50    0.21    0.17    0.12    0.05    0.01    0.00    0.00    0.00    0.00       10      13
 2015 127    25    24    5.2      0  0.806    224     74      0     66    298    298      0     0.0  0.000      0      0  0.000  0.000  0.000  0.000  0.000  0.000  0.000    3.26   0.00   0.00      0      0  359.7   0.21   0.21    8.2   0.50    0.22    0.18    0.13    0.05    0.01    0.00    0.00    0.00    0.00       14      14
 2015 128    26    25    5.5      0  0.929    254     91      0     70    345    345      0     0.0  0.000      0      0  0.000  0.000  0.000  0.000  0.000  0.000  0.000    3.30   0.00   0.00      0      0  365.5   0.23   0.22    8.5   0.50    0.23    0.19    0.14    0.05    0.02    0.00    0.00    0.00    0.00       16      15
 2015 129    27    26    5.7      0  1.058    286    108      0     74    395    395      0     0.0  0.000      0      0  0.000  0.000  0.000  0.000  0.000  0.000  0.000    3.49   0.00   0.00      0      0  369.4   0.25   0.24    8.6   0.50    0.24    0.20    0.14    0.06    0.02    0.00    0.00    0.00    0.00       16      17
 2015 130    28    27    5.9      0  1.096    302    116      0     95    419    419      0     0.0  0.000      0      0  0.177  0.452  0.000  0.000  0.000  0.000  0.000    3.66   0.00   0.00      0      0  362.4   0.26   0.25    8.6   0.50    0.31    0.25    0.18    0.08    0.02    0.00    0.00    0.00    0.00       16      18
 2015 131    29    28    6.1      0  1.183    316    127      0     97    443    443      0     0.0  0.000      0      0  0.000  0.000  0.000  0.000  0.000  0.000  0.036    3.63   0.00   0.00      0      0  374.1   0.27   0.26   10.1   0.50    0.31    0.26    0.18    0.08    0.02    0.00    0.00    0.00    0.00       27      20
 2015 132    30    29    6.3      0  1.311    342    144      0    101    486    486      0     0.0  0.000      0      0  0.000  0.000  0.000  0.000  0.000  0.000  0.000    3.65   0.00   0.00      0      0  383.2   0.29   0.28   10.5   0.50    0.33    0.27    0.19    0.08    0.03    0.00    0.00    0.00    0.00       36      22
 2015 133    31    30    6.6      0  1.442    372    165      0    107    537    537      0     0.0  0.000      0      0  0.000  0.000  0.000  0.000  0.000  0.000  0.000    3.67   0.00   0.00      0      0  387.7   0.31   0.29   10.9   0.50    0.35    0.28    0.20    0.09    0.03    0.00    0.00    0.00    0.00       47      23
 2015 134    32    31    6.8      0  1.481    392    183      0    125    575    575      0     0.0  0.000      0      0  0.000  0.000  0.197  0.000  0.000  0.000  0.000    3.51   0.00   0.00      0      0  377.7   0.33   0.31   12.7   0.50    0.41    0.33    0.24    0.11    0.03    0.00    0.00    0.00    0.00       73      25
 2015 135    33    32    7.0      1  1.608    427    210      0    138    637    637      0     0.0  0.000      0      0  0.000  0.000  0.099  0.000  0.000  0.000  0.000    3.38   0.00   0.00      0      0  376.6   0.35   0.32   14.9   0.50    0.45    0.36    0.26    0.12    0.04    0.00    0.00    0.00    0.00       77      27
 2015 136    34    33    7.3      1  1.718    455    236      0    143    691    691      0     0.0  0.000      0      0  0.000  0.000  0.000  0.000  0.000  0.000  0.000    3.43   0.00   0.00      0      0  377.4   0.37   0.34   15.3   0.50    0.47    0.38    0.28    0.13    0.04    0.00    0.00    0.00    0.00       90      29
 2015 137    35    34    7.5      1  1.822    490    269      0    150    760    760      0     0.0  0.000      0      0  0.000  0.000  0.000  0.000  0.000  0.000  0.000    3.58   0.00   0.00      0      0  371.5   0.39   0.35   15.6   0.50    0.49    0.39    0.29    0.13    0.04    0.00    0.00    0.00    0.00      106      32
 2015 138    36    35    7.8      3  1.892    515    300      0    156    815    815      0     0.0  0.000      0      0  0.000  0.000  0.000  0.000  0.000  0.000  0.000    3.85   0.00   0.00      0      0  367.4   0.41   0.37   15.0   0.50    0.50    0.41    0.30    0.14    0.04    0.00    0.00    0.00    0.00      135      36
 2015 139    37    36    8.0      3  1.890    523    327      0    175    850    853      0     0.0  0.000      3      8  0.000  0.146  0.000  0.000  0.000  0.000  0.000    3.93   0.00   0.00      0      3  361.3   0.44   0.38   15.0   0.50    0.57    0.46    0.34    0.16    0.05    0.00    0.00    0.00    0.00      175      39
 2015 140    38    37    8.3      3  1.986    559    364      0    180    923    940      0     0.0  0.000     16     35  0.000  0.000  0.000  0.000  0.000  0.000  0.000    3.92   0.00   0.02      0     16  355.3   0.46   0.40   14.4   0.50    0.58    0.47    0.35    0.16    0.05    0.00    0.00    0.00    0.00      180      43
 2015 141    39    38    8.5      3  2.045    587    398      0    184    985   1025      0     0.0  0.000     40     62  0.000  0.000  0.000  0.000  0.000  0.000  0.000    3.95   0.00   0.04      0     40  348.2   0.48   0.41   13.8   0.50    0.60    0.48    0.35    0.17    0.05    0.00    0.00    0.00    0.00      191      46
 2015 142    40    39    8.8      3  2.061    604    431      0    188   1035   1108      0     0.0  0.000     73     88  0.000  0.000  0.000  0.000  0.000  0.000  0.000    3.86   0.00   0.07      0     73  341.1   0.51   0.43   16.1   0.50    0.61    0.49    0.36    0.17    0.06    0.00    0.00    0.00    0.00      210      50
 2015 143    41    40    9.1      5  2.103    623    456      0    189   1079   1198      0     0.0  0.000    119    120  0.000  0.000  0.000  0.000  0.000  0.000  0.000    3.87   0.00   0.10      0    119  337.7   0.54   0.44   15.5   0.50    0.61    0.49    0.37    0.17    0.06    0.00    0.00    0.00    0.00      215      54
 2015 144    42    41    9.3      5  2.129    637    476      0    190   1113   1288     34     0.0  0.000    175    148  0.000  0.000  0.000  0.000  0.000  0.000  0.000    3.92   0.00   0.14      0    175  334.3   0.57   0.45   14.9   0.50    0.61    0.49    0.37    0.17    0.06    0.00    0.00    0.00    0.00      222      59
 2015 145    43    42    9.6      5  2.131    644    492      3    189   1136   1379    159     2.1  0.002    243    175  0.000  0.000  0.000  0.000  0.000  0.000  0.000    3.98   1.34   0.18      0    243  331.2   0.60   0.45   14.3   0.50    0.61    0.49    0.36    0.17    0.06    0.00    0.00    0.00    0.00      234      63
 2015 146    44    43    9.8      5  2.076    645    530     18    185   1175   1487    396     4.7  0.012    312    204  0.000  0.330  0.064  0.000  0.000  0.000  0.000    3.85   5.91   0.21      0    312  321.7   0.62   0.45   15.9   0.50    0.60    0.48    0.36    0.17    0.05    0.00    0.00    0.00    0.00      254      67
 2015 147    45    44   10.1      5  2.040    632    522     56    181   1154   1569    540    10.4  0.036    414    243  0.000  0.000  0.000  0.000  0.000  0.000  0.000    3.81  13.58   0.26      0    414  322.8   0.64   0.45   15.9   0.50    0.59    0.47    0.35    0.17    0.05    0.00    0.00    0.00    0.00      264      71
 2015 148    46    45   10.3      5  2.013    622    516    103    177   1137   1652    540    19.1  0.063    515    272  0.000  0.000  0.000  0.000  0.000  0.000  0.000    3.79  20.06   0.31      0    515  323.8   0.67   0.45   15.6   0.50    0.58    0.47    0.34    0.16    0.05    0.00    0.00    0.00    0.00      271      74
 2015 149    47    46   10.3      5  1.985    611    510    148    175   1121   1725    663    22.4  0.086    604    295  0.000  0.000  0.000  0.000  0.000  0.000  0.000    3.76  24.56   0.35      0    604  324.8   0.70   0.45   14.9   0.50    0.57    0.46    0.34    0.16    0.05    0.00    0.00    0.00    0.00      283      78
 2015 150    48    47   10.3      5  1.955    600    503    204    171   1103   1801    780    26.2  0.113    698    314  0.000  0.274  0.000  0.000  0.000  0.000  0.000    3.73  29.25   0.39      0    698  325.9   0.71   0.45   14.3   0.50    0.56    0.45    0.33    0.16    0.05    0.00    0.00    0.00    0.00      295      81
 2015 151    49    48   10.3      5  1.918    587    496    270    168   1083   1850    813    33.3  0.146    767    313  0.280  0.520  0.000  0.000  0.000  0.000  0.000    3.68  35.27   0.41      0    767  327.0   0.73   0.45   13.8   0.50    0.55    0.44    0.33    0.16    0.05    0.00    0.00    0.00    0.00      315      84
 2015 152    50    49   10.3      5  1.874    571    488    341    165   1060   1897    813    41.9  0.180    838    291  0.391  0.594  0.000  0.000  0.000  0.000  0.000    3.63  40.71   0.44      0    838  328.2   0.74   0.45   13.2   0.50    0.54    0.44    0.32    0.15    0.05    0.00    0.00    0.00    0.00      325      88
 2015 153    51    50   10.3      5  1.830    555    480    417    162   1036   1973    838    49.7  0.211    938    279  0.000  0.000  0.000  0.000  0.000  0.000  0.000    3.57  44.47   0.48      0    938  329.5   0.74   0.45   13.3   0.50    0.53    0.43    0.32    0.15    0.05    0.00    0.00    0.00    0.00      345      91
 2015 154    52    51   10.3      5  1.788    540    472    495    158   1012   2045    881    56.2  0.242   1032    292  0.000  0.000  0.000  0.000  0.000  0.000  0.000    3.51  47.99   0.50      0   1032  330.9   0.74   0.45   12.8   0.50    0.52    0.42    0.31    0.15    0.05    0.00    0.00    0.00    0.00      368      95
 2015 155    53    52   10.3      5  1.673    503    458    577    155    961   2087    928    62.1  0.276   1126    308  0.000  0.159  0.000  0.000  0.000  0.000  0.000    3.45  51.22   0.54      0   1126  332.4   0.74   0.45   12.3   0.50    0.51    0.41    0.30    0.14    0.05    0.00    0.00    0.00    0.00      418      98
 2015 156    54    53   10.3      5  1.534    464    453    660    152    917   2115    950    69.5  0.312   1198    314  0.150  0.433  0.000  0.000  0.000  0.000  0.000    3.35  55.06   0.57      0   1198  330.4   0.74   0.45   12.6   0.50    0.50    0.40    0.30    0.14    0.05    0.00    0.00    0.00    0.00      473     101
 2015 157    55    54   10.3      5  1.497    452    447    748    149    899   2189    958    78.0  0.342   1290    297  0.000  0.000  0.000  0.000  0.000  0.000  0.000    3.28  57.96   0.59      0   1290  331.3   0.74   0.45   13.1   0.50    0.49    0.40    0.29    0.14    0.05    0.00    0.00    0.00    0.00      486     104
 2015 158    56    55   10.3      5  1.461    439    439    837    146    878   2262    960    87.1  0.370   1384    301  0.000  0.000  0.000  0.000  0.000  0.000  0.000    3.21  60.46   0.61      0   1384  333.0   0.74   0.45   12.5   0.50    0.48    0.39    0.29    0.14    0.04    0.00    0.00    0.00    0.00      496     107
 2015 159    57    56   10.3      5  1.428    427    432    924    143    859   2332    965    95.8  0.396   1473    285  0.000  0.000  0.000  0.000  0.000  0.000  0.000    3.15  62.73   0.63      0   1473  334.6   0.74   0.45   12.0   0.50    0.48    0.38    0.28    0.13    0.04    0.00    0.00    0.00    0.00      506     110
 2015 160    58    57   10.3      5  1.362    410    435   1000    140    845   2392    965   103.6  0.418   1546    265  0.080  0.387  0.007  0.000  0.000  0.000  0.000    3.04  64.70   0.65      0   1546  332.1   0.74   0.45   12.1   0.50    0.47    0.38    0.28    0.13    0.04    0.00    0.00    0.00    0.00      526     113
 2015 161    59    58   10.3      5  1.331    399    428   1085    137    827   2453    965   112.4  0.442   1626    241  0.000  0.000  0.000  0.000  0.000  0.000  0.000    2.97  66.70   0.66      0   1626  333.8   0.74   0.45   12.3   0.50    0.46    0.37    0.27    0.13    0.04    0.00    0.00    0.00    0.00      534     115
 2015 162    60    59   10.3      5  1.298    387    420   1173    135    807   2521    965   121.6  0.466   1714    241  0.000  0.000  0.000  0.000  0.000  0.000  0.000    2.89  68.48   0.68      0   1714  335.7   0.74   0.45   12.3   0.50    0.45    0.36    0.27    0.13    0.04    0.00    0.00    0.00    0.00      542     118
 2015 163    61    60   10.3      7  1.264    383    439   1239    132    823   2596    972   127.5  0.477   1773    228  0.000  0.000  0.262  0.000  0.000  0.000  0.000    2.74  69.88   0.68      0   1773  329.8   0.74   0.45   12.3   0.50    0.44    0.36    0.26    0.12    0.04    0.00    0.00    0.00    0.00      553     120
 2015 164    62    61   10.3      7  0.937    287    421   1311    129    708   2550    972   134.9  0.514   1842    217  0.000  0.000  0.097  0.000  0.000  0.000  0.000    2.56  71.19   0.72      0   1842  326.6   0.74   0.45   12.3   0.50    0.43    0.35    0.26    0.12    0.04    0.00    0.00    0.00    0.00      678     123
 2015 165    63    62   10.3      7  0.695    211    394   1380    127    605   2512    972   141.9  0.549   1907    209  0.000  0.000  0.000  0.000  0.000  0.000  0.000    2.43  72.36   0.76      0   1907  329.1   0.74   0.45   12.3   0.50    0.43    0.34    0.25    0.12    0.04    0.00    0.00    0.00    0.00      771     125
 2015 166    64    63   10.3      7  0.516    156    372   1433    124    528   2484    972   147.4  0.577   1956    209  0.000  0.000  0.000  0.000  0.000  0.000  0.000    2.32  73.25   0.79      0   1956  332.1   0.74   0.45   12.3   0.50    0.42    0.34    0.25    0.12    0.04    0.00    0.00    0.00    0.00      840     128
 2015 167    65    64   10.3      7  0.384    115    356   1472    122    470   2462    972   151.4  0.598   1991    209  0.000  0.000  0.000  0.000  0.000  0.000  0.000    2.22  73.90   0.81      0   1991  335.0   0.74   0.45   12.3   0.50    0.41    0.33    0.24    0.12    0.04    0.00    0.00    0.00    0.00      890     130
 2015 168    66    65   10.3      7  0.286     85    342   1500    119    427   2443    972   154.3  0.614   2016    209  0.000  0.000  0.000  0.000  0.000  0.000  0.000    2.13  74.38   0.83      0   2016  337.8   0.74   0.45   11.8   0.50    0.40    0.32    0.24    0.11    0.04    0.00    0.00    0.00    0.00      927     133
 2015 169    67    66   10.3      7  0.213     62    332   1521    117    394   2428    972   156.4  0.626   2034    209  0.000  0.000  0.000  0.000  0.000  0.000  0.000    2.04  74.76   0.84      0   2034  340.5   0.74   0.45   11.4   0.50    0.40    0.32    0.24    0.11    0.04    0.00    0.00    0.00    0.00      955     135
 2015 170    68    67   10.3      7  0.158     46    323   1535    115    369   2415    972   158.0  0.636   2046    209  0.000  0.000  0.000  0.000  0.000  0.000  0.000    1.96  75.04   0.85      0   2046  343.0   0.74   0.45   10.9   0.50    0.39    0.31    0.23    0.11    0.04    0.00    0.00    0.00    0.00      975     138
 2015 171    69    68   10.3      7  0.118     34    316   1544    113    351   2404    972   158.9  0.643   2053    209  0.000  0.000  0.000  0.000  0.000  0.000  0.000    1.91  75.22   0.85      0   2053  345.2   0.74   0.45   10.5   0.50    0.38    0.31    0.23    0.11    0.03    0.00    0.00    0.00    0.00      990     140
 2015 172    70    69   10.3      8  0.088     25    311   1551    111    336   2394    972   159.5  0.648   2058    209  0.000  0.000  0.000  0.000  0.000  0.000  0.000    1.88  75.36   0.86      0   2058  347.3   0.74   0.45   10.1   0.50    0.38    0.30    0.22    0.11    0.03    0.00    0.00    0.00    0.00     1001     142

*DSSAT Cropping System Model Ver. 4.7.5.007 -  MAR 01, 2026 21:01:02
!                                                                                                                                                                                                                                                    Root Dens. (cm/cm3) by soil depth (cm):
!                                                                                                                                                                                                                                                   0-10   10-20   20-30   30-40   40-50   50-60   60-70   70-80   80-90
@YEAR DOY   DAS   DAP   L#SD   GSTD   LAID   LWAD   SWAD   GWAD   RWAD   VWAD   CWAD   G#AD    GWGD   HIAD   PWAD   P#AD   WSPD   WSGD   NSTD  PST1A  PST2A   KSTD   EWSD    LN%D   SH%D   HIPD   PWDD   PWTD   SLAD   CHTD   CWID   NWAD   RDPD    RL1D    RL2D    RL3D    RL4D    RL5D    RL6D    RL7D    RL8D    RL9D    SNW0C   SNW1C
 2015 126     1     0    0.0      0  0.000      0      0      0      0      0      0      0     0.0  0.000      0      0  0.000  0.000  0.000  0.000  0.000  0.000  0.000    0.00   0.00   0.00      0      0    0.0   0.00   0.00    0.0   0.00    0.00    0.00    0.00    0.00    0.00    0.00    0.00    0.00    0.00        0       0
 2015 127     2     1    0.0      0  0.000      0      0      0      0      0      0      0     0.0  0.000      0      0  0.000  0.000  0.000  0.000  0.000  0.000  0.000    0.00   0.00   0.00      0      0    0.0   0.00   0.00    0.0   0.00    0.00    0.00    0.00    0.00    0.00    0.00    0.00    0.00    0.00        0       0
 2015 128     3     2    0.0      0  0.000      0      0      0      0      0      0      0     0.0  0.000      0      0  0.000  0.000  0.000  0.000  0.000  0.000  0.000    0.00   0.00   0.00      0      0    0.0   0.00   0.00    0.0   0.00    0.00    0.00    0.00    0.00    0.00    0.00    0.00    0.00    0.00        0       0
 2015 129     4     3    0.0      0  0.000      0      0      0      0      0      0      0     0.0  0.000      0      0  0.000  0.000  0.000  0.000  0.000  0.000  0.000    0.00   0.00   0.00      0      0    0.0   0.00   0.00    0.0   0.00    0.00    0.00    0.00    0.00    0.00    0.00    0.00    0.00    0.00        0       0
 2015 130     5     4    0.1      0  0.028     13      6      0     18     19     19      0     0.0  0.000      0      0  0.000  0.000  0.000  0.000  0.000  0.000  0.011    3.84   0.00   0.00      0      0  216.4   0.04   0.03    4.5   0.27    0.07    0.07    0.03    0.00    0.00    0.00    0.00    0.00    0.00        0       1
 2015 131     6     5    0.3      0  0.034     14      6      0     18     20     20      0     0.0  0.000      0      0  0.000  0.000  0.000  0.000  0.000  0.000  0.047    3.85   0.00   0.00      0      0  238.4   0.05   0.03    4.3   0.28    0.07    0.07    0.03    0.00    0.00    0.00    0.00    0.00    0.00        0       1
 2015 132     7     6    0.5      0  0.042     16      6      0     19     22     22      0     0.0  0.000      0      0  0.000  0.000  0.000  0.000  0.000  0.000  0.000    3.85   0.00   0.00      0      0  263.5   0.06   0.03    4.2   0.30    0.07    0.07    0.03    0.00    0.00    0.00    0.00    0.00    0.00        0       1
 2015 133     8     7    0.7      0  0.052     18      6      0     19     24     24      0     0.0  0.000      0      0  0.000  0.000  0.000  0.000  0.000  0.000  0.000    3.85   0.00   0.00      0      0  283.9   0.06   0.04    4.1   0.32    0.07    0.07    0.03    0.00    0.00    0.00    0.00    0.00    0.00        0       2
 2015 134     9     8    1.0      0  0.062     21      7      0     19     28     28      0     0.0  0.000      0      0  0.000  0.000  0.000  0.000  0.000  0.000  0.000    3.85   0.00   0.00      0      0  297.0   0.07   0.04    4.0   0.33    0.07    0.07    0.04    0.00    0.00    0.00    0.00    0.00    0.00        0       2
 2015 135    10     9    1.2      0  0.073     24      8      0     20     31     31      0     0.0  0.000      0      0  0.000  0.000  0.000  0.000  0.000  0.000  0.013    3.82   0.00   0.00      0      0  308.4   0.08   0.05    4.1   0.35    0.07    0.07    0.04    0.00    0.00    0.00    0.00    0.00    0.00        0       3
 2015 136    11    10    1.4      0  0.083     26      9      0     21     35     35      0     0.0  0.000      0      0  0.000  0.000  0.000  0.000  0.000  0.000  0.000    3.84   0.00   0.00      0      0  318.2   0.08   0.05    4.0   0.37    0.08    0.07    0.04    0.00    0.00    0.00    0.00    0.00    0.00        0       3
 2015 137    12    11    1.7      0  0.095     29     11      0     23     40     40      0     0.0  0.000      0      0  0.000  0.000  0.000  0.000  0.000  0.000  0.000    3.84   0.00   0.00      0      0  322.9   0.09   0.06    4.0   0.38    0.08    0.08    0.04    0.00    0.00    0.00    0.00    0.00    0.00        0       4
 2015 138    13    12    1.9      0  0.115     35     12      0     23     46     46      0     0.0  0.000      0      0  0.000  0.000  0.000  0.000  0.000  0.000  0.000    3.85   0.00   0.00      0      0  333.3   0.10   0.06    4.0   0.40    0.08    0.08    0.04    0.00    0.00    0.00    0.00    0.00    0.00        0       4
 2015 139    14    13    2.2      0  0.144     41     13      0     24     54     54      0     0.0  0.000      0      0  0.000  0.001  0.000  0.000  0.000  0.000  0.000    3.81   0.00   0.00      0      0  353.1   0.11   0.07    4.0   0.42    0.09    0.08    0.05    0.01    0.00    0.00    0.00    0.00    0.00        1       5
 2015 140    15    14    2.5      0  0.173     48     15      0     25     63     63      0     0.0  0.000      0      0  0.000  0.000  0.000  0.000  0.000  0.000  0.000    3.79   0.00   0.00      0      0  360.8   0.11   0.08    4.1   0.44    0.09    0.08    0.05    0.01    0.00    0.00    0.00    0.00    0.00        1       5
 2015 141    16    15    2.7      0  0.204     56     17      0     25     74     74      0     0.0  0.000      0      0  0.000  0.000  0.000  0.000  0.000  0.000  0.000    3.84   0.00   0.00      0      0  362.0   0.12   0.08    4.1   0.46    0.09    0.08    0.05    0.01    0.00    0.00    0.00    0.00    0.00        1       6
 2015 142    17    16    3.0      0  0.244     66     20      0     26     86     86      0     0.0  0.000      0      0  0.000  0.000  0.000  0.000  0.000  0.000  0.000    3.69   0.00   0.00      0      0  368.0   0.13   0.09    4.8   0.48    0.09    0.09    0.05    0.01    0.00    0.00    0.00    0.00    0.00        2       6
 2015 143    18    17    3.3      0  0.295     77     24      0     28    101    101      0     0.0  0.000      0      0  0.000  0.000  0.000  0.000  0.000  0.000  0.000    3.68   0.00   0.00      0      0  381.0   0.13   0.10    4.8   0.50    0.10    0.09    0.05    0.01    0.00    0.00    0.00    0.00    0.00        3       7
 2015 144    19    18    3.5      0  0.338     90     27      0     32    117    117      0     0.0  0.000      0      0  0.000  0.151  0.000  0.000  0.000  0.000  0.000    3.79   0.00   0.00      0      0  376.8   0.14   0.11    4.8   0.52    0.11    0.10    0.06    0.01    0.00    0.00    0.00    0.00    0.00        3       7
 2015 145    20    19    3.7      0  0.355     97     29      0     40    126    126      0     0.0  0.000      0      0  0.163  0.442  0.000  0.000  0.000  0.000  0.000    3.82   0.00   0.00      0      0  365.7   0.15   0.12    4.7   0.52    0.14    0.12    0.08    0.02    0.01    0.00    0.00    0.00    0.00        3       8
 2015 146    21    20    3.8      0  0.362    101     30      0     48    132    132      0     0.0  0.000      0      0  0.373  0.582  0.000  0.000  0.000  0.000  0.000    3.83   0.00   0.00      0      0  357.4   0.15   0.12    4.6   0.52    0.16    0.14    0.09    0.03    0.01    0.00    0.00    0.00    0.00        3       9
 2015 147    22    21    4.0      0  0.385    111     33      0     58    143    143      0     0.0  0.000      0      0  0.093  0.396  0.000  0.000  0.000  0.000  0.000    3.80   0.00   0.00      0      0  347.8   0.15   0.13    5.1   0.52    0.19    0.16    0.11    0.04    0.01    0.00    0.00    0.00    0.00        4      10
 2015 148    23    22    4.2      0  0.444    128     37      0     59    165    165      0     0.0  0.000      0      0  0.000  0.000  0.000  0.000  0.000  0.000  0.000    3.83   0.00   0.00      0      0  347.4   0.16   0.14    5.1   0.52    0.20    0.17    0.11    0.04    0.01    0.00    0.00    0.00    0.00        4      11
 2015 149    24    23    4.4      0  0.489    143     41      0     60    184    184      0     0.0  0.000      0      0  0.000  0.000  0.000  0.000  0.000  0.000  0.000    3.73   0.00   0.00      0      0  342.9   0.17   0.15    6.0   0.52    0.20    0.17    0.11    0.04    0.01    0.00    0.00    0.00    0.00        9      12
 2015 150    25    24    4.6      0  0.528    156     45      0     61    200    200      0     0.0  0.000      0      0  0.000  0.000  0.000  0.000  0.000  0.000  0.000    3.81   0.00   0.00      0      0  338.9   0.18   0.16    5.9   0.52    0.20    0.17    0.12    0.04    0.01    0.00    0.00    0.00    0.00       19      13
 2015 151    26    25    4.9      0  0.603    179     51      0     62    229    229      0     0.0  0.000      0      0  0.000  0.000  0.000  0.000  0.000  0.000  0.000    3.83   0.00   0.00      0      0  337.5   0.19   0.18    5.9   0.52    0.21    0.17    0.12    0.05    0.01    0.00    0.00    0.00    0.00       22      14
 2015 152    27    26    5.1      0  0.669    199     62      0     68    261    261      0     0.0  0.000      0      0  0.000  0.072  0.000  0.000  0.000  0.000  0.000    3.77   0.00   0.00      0      0  335.8   0.20   0.19    6.9   0.52    0.23    0.19    0.13    0.05    0.02    0.00    0.00    0.00    0.00       24      15
 2015 153    28    27    5.4      0  0.777    227     76      0     71    303    303      0     0.0  0.000      0      0  0.000  0.000  0.000  0.000  0.000  0.000  0.000    3.79   0.00   0.00      0      0  342.2   0.21   0.21    7.1   0.52    0.24    0.20    0.14    0.06    0.02    0.00    0.00    0.00    0.00       24      17
 2015 154    29    28    5.6      0  0.894    257     92      0     75    349    349      0     0.0  0.000      0      0  0.000  0.000  0.000  0.000  0.000  0.000  0.000    3.83   0.00   0.00      0      0  348.2   0.23   0.23    7.2   0.52    0.25    0.21    0.14    0.06    0.02    0.00    0.00    0.00    0.00       24      18
 2015 155    30    29    5.8      0  0.934    275    101      0     96    376    376      0     0.0  0.000      0      0  0.081  0.387  0.000  0.000  0.000  0.000  0.000    3.84   0.00   0.00      0      0  340.0   0.24   0.24    7.4   0.52    0.32    0.26    0.19    0.08    0.03    0.00    0.00    0.00    0.00       24      20
 2015 156    31    30    5.9      0  0.953    287    109      0    120    396    396      0     0.0  0.000      0      0  0.196  0.464  0.000  0.000  0.000  0.000  0.000    3.80   0.00   0.00      0      0  332.2   0.25   0.24    8.0   0.52    0.39    0.32    0.23    0.10    0.03    0.00    0.00    0.00    0.00       27      21
 2015 157    32    31    6.2      0  1.086    323    128      0    124    450    450      0     0.0  0.000      0      0  0.000  0.000  0.000  0.000  0.000  0.000  0.000    3.83   0.00   0.00      0      0  336.4   0.26   0.25    8.2   0.52    0.41    0.33    0.24    0.11    0.03    0.00    0.00    0.00    0.00       27      24
 2015 158    33    32    6.4      0  1.217    357    148      0    129    505    505      0     0.0  0.000      0      0  0.000  0.000  0.000  0.000  0.000  0.000  0.000    3.89   0.00   0.00      0      0  341.2   0.28   0.27    8.5   0.52    0.42    0.35    0.25    0.11    0.04    0.00    0.00    0.00    0.00       36      26
 2015 159    34    33    6.7      1  1.299    380    168      0    137    548    548      0     0.0  0.000      0      0  0.000  0.052  0.000  0.000  0.000  0.000  0.000    3.96   0.00   0.00      0      0  341.4   0.30   0.28    8.9   0.52    0.45    0.37    0.27    0.12    0.04    0.00    0.00    0.00    0.00       56      28
 2015 160    35    34    6.8      1  1.276    385    178      0    170    564    564      0     0.0  0.000      0      0  0.088  0.392  0.000  0.000  0.000  0.000  0.000    3.94   0.00   0.00      0      0  331.2   0.31   0.29    9.9   0.52    0.55    0.45    0.33    0.15    0.05    0.00    0.00    0.00    0.00       81      31
 2015 161    36    35    7.1      1  1.410    422    204      0    173    626    626      0     0.0  0.000      0      0  0.000  0.000  0.000  0.000  0.000  0.000  0.000    3.93   0.00   0.00      0      0  333.9   0.33   0.30   10.1   0.52    0.57    0.46    0.34    0.16    0.05    0.00    0.00    0.00    0.00       81      34
 2015 162    37    36    7.3      3  1.506    456    233      0    178    689    689      0     0.0  0.000      0      0  0.000  0.000  0.000  0.000  0.000  0.000  0.000    3.99   0.00   0.00      0      0  330.5   0.35   0.32    9.7   0.52    0.58    0.47    0.35    0.16    0.05    0.00    0.00    0.00    0.00       97      38
 2015 163    38    37    7.6      3  1.575    480    266      0    184    746    749      0     0.0  0.000      3      8  0.000  0.000  0.000  0.000  0.000  0.000  0.000    3.93   0.00   0.00      0      3  328.1   0.37   0.34   11.4   0.52    0.60    0.49    0.36    0.17    0.05    0.00    0.00    0.00    0.00      126      41
 2015 164    39    38    7.9      3  1.602    496    290      0    188    786    801      0     0.0  0.000     15     33  0.000  0.000  0.000  0.000  0.000  0.000  0.000    4.02   0.00   0.02      0     15  322.9   0.40   0.35   10.9   0.52    0.61    0.50    0.36    0.17    0.06    0.00    0.00    0.00    0.00      153      45
 2015 165    40    39    8.1      3  1.648    520    317      0    191    837    871      0     0.0  0.000     35     54  0.000  0.000  0.000  0.000  0.000  0.000  0.000    4.07   0.00   0.04      0     35  317.1   0.42   0.37   10.5   0.52    0.62    0.51    0.37    0.17    0.06    0.00    0.00    0.00    0.00      166      49
 2015 166    41    40    8.4      3  1.687    540    344      0    194    884    947      0     0.0  0.000     63     76  0.000  0.000  0.000  0.000  0.000  0.000  0.000    4.12   0.00   0.07      0     63  312.1   0.44   0.38   10.1   0.52    0.63    0.51    0.38    0.18    0.06    0.00    0.00    0.00    0.00      178      53
 2015 167    42    41    8.6      5  1.679    553    375      0    194    928   1027      0     0.0  0.000     99    100  0.000  0.000  0.000  0.000  0.000  0.000  0.000    4.00   0.00   0.10      0     99  303.8   0.46   0.40   11.8   0.52    0.64    0.51    0.38    0.18    0.06    0.00    0.00    0.00    0.00      196      56
 2015 168    43    42    8.9      5  1.706    566    393      0    194    959   1105     33     0.0  0.000    146    128  0.000  0.000  0.000  0.000  0.000  0.000  0.000    4.00   0.00   0.13      0    146  301.2   0.49   0.41   11.3   0.52    0.64    0.51    0.38    0.18    0.06    0.00    0.00    0.00    0.00      200      60
 2015 169    44    43    9.2      5  1.728    577    405      3    193    981   1183    143     2.1  0.003    201    150  0.000  0.000  0.000  0.000  0.000  0.000  0.000    4.05   1.52   0.17      0    201  299.5   0.52   0.43   10.9   0.52    0.63    0.51    0.37    0.18    0.06    0.00    0.00    0.00    0.00      205      65
 2015 170    45    44    9.4      5  1.683    577    432     16    189   1009   1270    233     7.0  0.013    260    172  0.000  0.000  0.036  0.000  0.000  0.000  0.000    3.94   6.27   0.21      0    260  291.7   0.54   0.44   12.6   0.52    0.62    0.50    0.37    0.17    0.06    0.00    0.00    0.00    0.00      224      68
 2015 171    46    45    9.6      5  1.662    568    427     37    186    995   1333    326    11.2  0.027    338    201  0.000  0.000  0.000  0.000  0.000  0.000  0.000    3.91  10.85   0.25      0    338  292.4   0.56   0.45   12.6   0.52    0.61    0.49    0.36    0.17    0.06    0.00    0.00    0.00    0.00      233      71
 2015 172    47    46    9.8      5  1.638    559    422     66    183    980   1405    429    15.5  0.047    424    220  0.000  0.000  0.000  0.000  0.000  0.000  0.000    3.88  15.64   0.30      0    424  293.3   0.58   0.45   12.6   0.52    0.60    0.49    0.36    0.17    0.06    0.00    0.00    0.00    0.00      244      74
 2015 173    48    47   10.0      5  1.615    549    416    104    180    965   1473    552    18.9  0.071    508    242  0.000  0.000  0.000  0.000  0.000  0.000  0.000    3.85  20.54   0.34      0    508  294.1   0.60   0.45   12.6   0.52    0.59    0.48    0.35    0.17    0.05    0.00    0.00    0.00    0.00      256      77
 2015 174    49    48   10.0      5  1.588    554    446    155    176   1000   1563    641    24.1  0.099    563    260  0.000  0.000  0.099  0.000  0.000  0.000  0.000    3.71  27.49   0.36      0    563  286.5   0.62   0.45   14.1   0.52    0.58    0.47    0.34    0.16    0.05    0.00    0.00    0.00    0.00      271      80
 2015 175    50    49   10.0      5  1.561    543    439    212    173    982   1617    689    30.7  0.131    636    276  0.000  0.000  0.000  0.000  0.000  0.000  0.000    3.67  33.27   0.39      0    636  287.7   0.65   0.45   14.1   0.52    0.57    0.46    0.34    0.16    0.05    0.00    0.00    0.00    0.00      289      83
 2015 176    51    50   10.0      5  1.533    531    432    272    170    963   1683    709    38.3  0.161    720    270  0.000  0.000  0.000  0.000  0.000  0.000  0.000    3.63  37.73   0.43      0    720  288.8   0.67   0.45   13.8   0.52    0.56    0.45    0.33    0.16    0.05    0.00    0.00    0.00    0.00      304      86
 2015 177    52    51   10.0      5  1.506    528    444    333    167    972   1761    709    47.0  0.189    790    292  0.000  0.000  0.000  0.000  0.000  0.000  0.000    3.54  42.16   0.45      0    790  285.5   0.69   0.45   15.2   0.52    0.55    0.45    0.33    0.16    0.05    0.00    0.00    0.00    0.00      312      89
 2015 178    53    52   10.0      5  1.479    516    437    393    165    952   1820    724    54.3  0.216    867    297  0.000  0.000  0.000  0.000  0.000  0.000  0.000    3.50  45.36   0.48      0    867  286.8   0.70   0.45   15.2   0.52    0.54    0.44    0.32    0.15    0.05    0.00    0.00    0.00    0.00      326      91
 2015 179    54    53   10.0      5  1.453    504    429    454    162    933   1872    758    59.9  0.243    939    299  0.000  0.000  0.000  0.000  0.000  0.000  0.000    3.46  48.40   0.50      0    939  288.1   0.70   0.45   15.2   0.52    0.54    0.43    0.32    0.15    0.05    0.00    0.00    0.00    0.00      344      93
 2015 180    55    54   10.0      5  1.424    492    421    521    159    913   1930    791    65.8  0.270   1017    302  0.000  0.000  0.000  0.000  0.000  0.000  0.000    3.41  51.25   0.53      0   1017  289.5   0.70   0.45   15.2   0.52    0.53    0.43    0.31    0.15    0.05    0.00    0.00    0.00    0.00      363      96
 2015 181    56    55   10.0      5  1.395    489    438    590    156    927   2000    815    72.3  0.295   1073    300  0.000  0.129  0.000  0.000  0.000  0.000  0.000    3.29  54.95   0.54      0   1073  285.0   0.70   0.45   16.2   0.52    0.52    0.42    0.31    0.15    0.05    0.00    0.00    0.00    0.00      381      99
 2015 182    57    56   10.0      5  1.365    477    430    661    153    907   2061    831    79.6  0.321   1153    282  0.000  0.000  0.000  0.000  0.000  0.000  0.000    3.23  57.30   0.56      0   1153  286.2   0.70   0.45   17.2   0.52    0.51    0.41    0.30    0.14    0.05    0.00    0.00    0.00    0.00      395     101
 2015 183    58    57   10.0      5  1.335    464    421    735    150    885   2118    854    86.1  0.347   1233    281  0.000  0.000  0.000  0.000  0.000  0.000  0.000    3.18  59.63   0.58      0   1233  288.0   0.70   0.45   17.2   0.52    0.50    0.41    0.30    0.14    0.05    0.00    0.00    0.00    0.00      412     104
 2015 184    59    58   10.0      5  1.307    458    429    811    148    887   2191    858    94.6  0.370   1304    273  0.000  0.000  0.000  0.000  0.000  0.000  0.000    3.07  62.19   0.60      0   1304  285.5   0.70   0.45   18.0   0.52    0.49    0.40    0.29    0.14    0.05    0.00    0.00    0.00    0.00      422     106
 2015 185    60    59   10.0      5  1.280    445    420    885    145    865   2246    876   101.1  0.394   1381    239  0.000  0.000  0.000  0.000  0.000  0.000  0.000    3.02  64.12   0.61      0   1381  287.4   0.70   0.45   18.0   0.52    0.49    0.39    0.29    0.14    0.04    0.00    0.00    0.00    0.00      437     109
 2015 186    61    60   10.0      5  1.255    434    411    959    142    845   2300    883   108.5  0.417   1455    222  0.000  0.000  0.000  0.000  0.000  0.000  0.000    2.97  65.88   0.63      0   1455  289.4   0.70   0.45   18.0   0.52    0.48    0.39    0.28    0.13    0.04    0.00    0.00    0.00    0.00      447     111
 2015 187    62    61   10.0      5  1.231    422    403   1033    140    825   2352    883   116.9  0.439   1527    226  0.000  0.000  0.000  0.000  0.000  0.000  0.000    2.91  67.63   0.65      0   1527  291.4   0.70   0.45   18.0   0.52    0.47    0.38    0.28    0.13    0.04    0.00    0.00    0.00    0.00      454     113
 2015 188    63    62   10.0      5  1.207    411    395   1090    138    806   2386    883   123.4  0.457   1580    228  0.000  0.000  0.000  0.000  0.000  0.000  0.000    2.86  68.95   0.66      0   1580  293.4   0.70   0.45   17.5   0.52    0.46    0.38    0.28    0.13    0.04    0.00    0.00    0.00    0.00      461     116
 2015 189    64    63   10.0      5  1.187    402    387   1121    136    789   2399    883   127.0  0.468   1609    213  0.000  0.000  0.000  0.000  0.000  0.000  0.000    2.82  69.69   0.67      0   1609  295.3   0.70   0.45   16.8   0.52    0.46    0.37    0.27    0.13    0.04    0.00    0.00    0.00    0.00      466     118
 2015 190    65    64   10.0      7  1.163    393    383   1195    134    775   2455    883   135.3  0.487   1679    199  0.000  0.000  0.000  0.000  0.000  0.000  0.000    2.74  71.13   0.68      0   1679  296.2   0.70   0.45   16.8   0.52    0.45    0.36    0.27    0.13    0.04    0.00    0.00    0.00    0.00      473     120
 2015 191    66    65   10.0      7  0.863    295    366   1258    131    661   2401    883   142.4  0.524   1740    199  0.022  0.348  0.110  0.000  0.000  0.000  0.000    2.57  72.29   0.72      0   1740  292.4   0.70   0.45   16.7   0.52    0.44    0.36    0.26    0.12    0.04    0.00    0.00    0.00    0.00      600     123
 2015 192    67    66   10.0      7  0.641    218    340   1323    129    559   2361    883   149.8  0.560   1802    197  0.000  0.000  0.000  0.000  0.000  0.000  0.000    2.44  73.42   0.76      0   1802  293.7   0.70   0.45   16.7   0.52    0.43    0.35    0.26    0.12    0.04    0.00    0.00    0.00    0.00      696     125
 2015 193    68    67   10.0      7  0.476    161    318   1372    126    479   2327    883   155.4  0.590   1848    193  0.000  0.000  0.000  0.000  0.000  0.000  0.000    2.34  74.24   0.79      0   1848  296.7   0.70   0.45   16.0   0.52    0.43    0.35    0.25    0.12    0.04    0.00    0.00    0.00    0.00      767     128
 2015 194    69    68   10.0      7  0.354    120    308   1405    124    428   2307    883   159.1  0.609   1879    190  0.000  0.000  0.160  0.000  0.000  0.000  0.000    2.22  74.78   0.81      0   1879  295.7   0.70   0.45   16.0   0.52    0.42    0.34    0.25    0.12    0.04    0.00    0.00    0.00    0.00      819     130
 2015 195    70    69   10.0      7  0.264     88    294   1434    122    383   2287    883   162.3  0.627   1905    190  0.000  0.000  0.000  0.000  0.000  0.000  0.000    2.13  75.27   0.83      0   1905  298.7   0.70   0.45   15.4   0.52    0.41    0.33    0.25    0.12    0.04    0.00    0.00    0.00    0.00      858     133
 2015 196    71    70   10.0      7  0.196     65    283   1455    120    348   2271    883   164.7  0.640   1923    190  0.000  0.000  0.000  0.000  0.000  0.000  0.000    2.05  75.64   0.85      0   1923  301.5   0.70   0.45   14.8   0.52    0.41    0.33    0.24    0.11    0.04    0.00    0.00    0.00    0.00      887     136
 2015 197    72    71   10.0      7  0.146     48    274   1470    118    322   2258    883   166.4  0.651   1936    190  0.000  0.000  0.000  0.000  0.000  0.000  0.000    1.98  75.92   0.86      0   1936  304.1   0.70   0.45   14.2   0.52    0.40    0.32    0.24    0.11    0.04    0.00    0.00    0.00    0.00      908     138
 2015 198    73    72   10.0      7  0.109     36    267   1481    116    302   2247    883   167.7  0.659   1945    190  0.000  0.000  0.000  0.000  0.000  0.000  0.000    1.92  76.14   0.87      0   1945  306.6   0.70   0.45   13.6   0.52    0.39    0.32    0.23    0.11    0.04    0.00    0.00    0.00    0.00      924     141
 2015 199    74    73   10.0      8  0.081     26    261   1488    114    287   2237    883   168.4  0.665   1950    190  0.000  0.000  0.000  0.000  0.000  0.000  0.000    1.88  76.29   0.87      0   1950  308.9   0.70   0.45   13.1   0.52    0.39    0.31    0.23    0.11    0.04    0.00    0.00    0.00    0.00      935     143

*DSSAT Cropping System Model Ver. 4.7.5.007 -  MAR 01, 2026 21:01:02
!                                                                                                                                                                                                                                                    Root Dens. (cm/cm3) by soil depth (cm):
!                                                                                                                                                                                                                                                   0-10   10-20   20-30   30-40   40-50   50-60   60-70   70-80   80-90
@YEAR DOY   DAS   DAP   L#SD   GSTD   LAID   LWAD   SWAD   GWAD   RWAD   VWAD   CWAD   G#AD    GWGD   HIAD   PWAD   P#AD   WSPD   WSGD   NSTD  PST1A  PST2A   KSTD   EWSD    LN%D   SH%D   HIPD   PWDD   PWTD   SLAD   CHTD   CWID   NWAD   RDPD    RL1D    RL2D    RL3D    RL4D    RL5D    RL6D    RL7D    RL8D    RL9D    SNW0C   SNW1C
 2015 148     1     0    0.0      0  0.000      0      0      0      0      0      0      0     0.0  0.000      0      0  0.000  0.000  0.000  0.000  0.000  0.000  0.000    0.00   0.00   0.00      0      0    0.0   0.00   0.00    0.0   0.00    0.00    0.00    0.00    0.00    0.00    0.00    0.00    0.00    0.00        0       0
 2015 149     2     1    0.0      0  0.000      0      0      0      0      0      0      0     0.0  0.000      0      0  0.000  0.000  0.000  0.000  0.000  0.000  0.000    0.00   0.00   0.00      0      0    0.0   0.00   0.00    0.0   0.00    0.00    0.00    0.00    0.00    0.00    0.00    0.00    0.00    0.00        0       0
 2015 150     3     2    0.0      0  0.000      0      0      0      0      0      0      0     0.0  0.000      0      0  0.000  0.000  0.000  0.000  0.000  0.000  0.000    0.00   0.00   0.00      0      0    0.0   0.00   0.00    0.0   0.00    0.00    0.00    0.00    0.00    0.00    0.00    0.00    0.00    0.00        0       0
 2015 151     4     3    0.0      0  0.000      0      0      0      0      0      0      0     0.0  0.000      0      0  0.000  0.000  0.000  0.000  0.000  0.000  0.000    0.00   0.00   0.00      0      0    0.0   0.00   0.00    0.0   0.00    0.00    0.00    0.00    0.00    0.00    0.00    0.00    0.00    0.00        0       0
 2015 152     5     4    0.2      0  0.028     13      6      0     18     19     19      0     0.0  0.000      0      0  0.000  0.000  0.000  0.000  0.000  0.000  0.000    3.84   0.00   0.00      0      0  216.3   0.04   0.03    4.5   0.27    0.07    0.07    0.03    0.00    0.00    0.00    0.00    0.00    0.00        0       1
 2015 153     6     5    0.4      0  0.036     15      6      0     19     21     21      0     0.0  0.000      0      0  0.000  0.000  0.000  0.000  0.000  0.000  0.000    3.85   0.00   0.00      0      0  239.2   0.05   0.03    4.4   0.29    0.07    0.07    0.03    0.00    0.00    0.00    0.00    0.00    0.00        0       1
 2015 154     7     6    0.7      0  0.045     17      6      0     19     24     24      0     0.0  0.000      0      0  0.000  0.000  0.000  0.000  0.000  0.000  0.000    3.85   0.00   0.00      0      0  260.3   0.06   0.03    4.2   0.31    0.07    0.07    0.03    0.00    0.00    0.00    0.00    0.00    0.00        0       2
 2015 155     8     7    0.9      0  0.055     20      7      0     20     27     27      0     0.0  0.000      0      0  0.000  0.125  0.037  0.000  0.000  0.000  0.003    3.80   0.00   0.00      0      0  268.5   0.07   0.04    4.2   0.32    0.07    0.07    0.04    0.00    0.00    0.00    0.00    0.00    0.00        0       2
 2015 156     9     8    1.2      0  0.066     23      7      0     21     31     31      0     0.0  0.000      0      0  0.000  0.000  0.000  0.000  0.000  0.000  0.000    3.84   0.00   0.00      0      0  280.9   0.07   0.04    4.1   0.34    0.07    0.07    0.04    0.00    0.00    0.00    0.00    0.00    0.00        0       2
 2015 157    10     9    1.4      0  0.078     27      8      0     22     35     35      0     0.0  0.000      0      0  0.000  0.000  0.000  0.000  0.000  0.000  0.000    3.84   0.00   0.00      0      0  291.6   0.08   0.05    4.1   0.36    0.08    0.07    0.04    0.00    0.00    0.00    0.00    0.00    0.00        0       3
 2015 158    11    10    1.7      0  0.090     30     10      0     23     40     40      0     0.0  0.000      0      0  0.000  0.000  0.000  0.000  0.000  0.000  0.000    3.85   0.00   0.00      0      0  300.9   0.09   0.06    4.1   0.38    0.08    0.08    0.04    0.00    0.00    0.00    0.00    0.00    0.00        0       3
 2015 159    12    11    1.9      0  0.108     35     11      0     23     46     46      0     0.0  0.000      0      0  0.000  0.000  0.000  0.000  0.000  0.000  0.000    3.85   0.00   0.00      0      0  310.1   0.10   0.06    4.0   0.40    0.08    0.08    0.04    0.00    0.00    0.00    0.00    0.00    0.00        0       4
 2015 160    13    12    2.1      0  0.116     38     12      0     27     51     51      0     0.0  0.000      0      0  0.033  0.355  0.000  0.000  0.000  0.000  0.000    3.82   0.00   0.00      0      0  301.3   0.10   0.06    4.0   0.41    0.10    0.09    0.05    0.01    0.00    0.00    0.00    0.00    0.00        0       4
 2015 161    14    13    2.3      0  0.141     44     14      0     27     58     58      0     0.0  0.000      0      0  0.000  0.000  0.000  0.000  0.000  0.000  0.000    3.84   0.00   0.00      0      0  317.2   0.10   0.07    4.0   0.43    0.10    0.09    0.05    0.01    0.00    0.00    0.00    0.00    0.00        0       5
 2015 162    15    14    2.6      0  0.170     52     16      0     28     68     68      0     0.0  0.000      0      0  0.000  0.000  0.000  0.000  0.000  0.000  0.000    3.85   0.00   0.00      0      0  326.2   0.11   0.07    3.9   0.45    0.10    0.09    0.05    0.01    0.00    0.00    0.00    0.00    0.00        0       6
 2015 163    16    15    2.9      0  0.208     61     18      0     29     79     79      0     0.0  0.000      0      0  0.000  0.000  0.000  0.000  0.000  0.000  0.000    3.85   0.00   0.00      0      0  339.4   0.12   0.08    3.9   0.47    0.10    0.09    0.06    0.01    0.00    0.00    0.00    0.00    0.00        0       6
 2015 164    17    16    3.0      0  0.219     66     19      0     34     86     86      0     0.0  0.000      0      0  0.102  0.401  0.000  0.000  0.000  0.000  0.000    3.85   0.00   0.00      0      0  329.8   0.12   0.09    3.8   0.49    0.12    0.11    0.07    0.02    0.00    0.00    0.00    0.00    0.00        1       7
 2015 165    18    17    3.1      0  0.224     70     20      0     41     90     90      0     0.0  0.000      0      0  0.259  0.506  0.000  0.000  0.000  0.000  0.000    3.82   0.00   0.00      0      0  320.2   0.12   0.09    3.9   0.51    0.14    0.12    0.08    0.02    0.00    0.00    0.00    0.00    0.00        1       8
 2015 166    19    18    3.4      0  0.270     82     23      0     41    105    105      0     0.0  0.000      0      0  0.000  0.000  0.000  0.000  0.000  0.000  0.000    3.84   0.00   0.00      0      0  329.2   0.13   0.09    3.9   0.51    0.14    0.12    0.08    0.02    0.01    0.00    0.00    0.00    0.00        1       8
 2015 167    20    19    3.7      0  0.324     96     27      0     42    123    123      0     0.0  0.000      0      0  0.000  0.000  0.000  0.000  0.000  0.000  0.000    3.85   0.00   0.00      0      0  338.3   0.14   0.11    3.9   0.51    0.14    0.13    0.08    0.03    0.01    0.00    0.00    0.00    0.00        1       9
 2015 168    21    20    3.9      0  0.388    110     31      0     43    141    141      0     0.0  0.000      0      0  0.000  0.000  0.000  0.000  0.000  0.000  0.000    3.85   0.00   0.00      0      0  352.1   0.15   0.12    3.9   0.51    0.15    0.13    0.08    0.03    0.01    0.00    0.00    0.00    0.00        3      10
 2015 169    22    21    4.2      0  0.435    123     34      0     46    157    157      0     0.0  0.000      0      0  0.000  0.096  0.000  0.000  0.000  0.000  0.000    3.85   0.00   0.00      0      0  353.7   0.15   0.14    3.9   0.51    0.16    0.14    0.09    0.03    0.01    0.00    0.00    0.00    0.00        9      11
 2015 170    23    22    4.3      0  0.467    135     37      0     56    173    173      0     0.0  0.000      0      0  0.025  0.350  0.000  0.000  0.000  0.000  0.000    3.86   0.00   0.00      0      0  344.6   0.16   0.15    3.9   0.51    0.19    0.16    0.11    0.04    0.01    0.00    0.00    0.00    0.00        9      12
 2015 171    24    23    4.4      0  0.474    140     39      0     65    179    179      0     0.0  0.000      0      0  0.362  0.575  0.000  0.000  0.000  0.000  0.000    3.86   0.00   0.00      0      0  337.8   0.16   0.15    3.8   0.51    0.22    0.18    0.13    0.05    0.01    0.00    0.00    0.00    0.00        9      13
 2015 172    25    24    4.5      0  0.480    144     40      0     74    184    184      0     0.0  0.000      0      0  0.453  0.636  0.000  0.000  0.000  0.000  0.000    3.86   0.00   0.00      0      0  332.1   0.16   0.15    3.7   0.51    0.25    0.21    0.14    0.06    0.02    0.00    0.00    0.00    0.00        9      14
 2015 173    26    25    4.6      0  0.496    153     42      0     85    195    195      0     0.0  0.000      0      0  0.175  0.450  0.000  0.000  0.000  0.000  0.000    3.84   0.00   0.00      0      0  323.3   0.17   0.16    3.7   0.51    0.28    0.23    0.16    0.07    0.02    0.00    0.00    0.00    0.00       10      15
 2015 174    27    26    4.9      0  0.586    178     47      0     86    225    225      0     0.0  0.000      0      0  0.000  0.000  0.000  0.000  0.000  0.000  0.000    3.84   0.00   0.00      0      0  329.5   0.17   0.16    3.8   0.51    0.28    0.24    0.17    0.07    0.02    0.00    0.00    0.00    0.00       11      17
 2015 175    28    27    5.1      0  0.639    190     54      0     88    245    245      0     0.0  0.000      0      0  0.000  0.000  0.000  0.000  0.000  0.000  0.000    3.84   0.00   0.00      0      0  335.4   0.18   0.18    4.0   0.51    0.29    0.24    0.17    0.07    0.02    0.00    0.00    0.00    0.00       23      18
 2015 176    29    28    5.3      0  0.676    202     62      0     90    263    263      0     0.0  0.000      0      0  0.000  0.000  0.000  0.000  0.000  0.000  0.000    3.84   0.00   0.00      0      0  334.8   0.20   0.19    4.2   0.51    0.30    0.25    0.18    0.07    0.02    0.00    0.00    0.00    0.00       40      20
 2015 177    30    29    5.5      0  0.732    221     71      0     94    292    292      0     0.0  0.000      0      0  0.000  0.000  0.028  0.000  0.000  0.000  0.000    3.62   0.00   0.00      0      0  331.7   0.21   0.21    4.9   0.51    0.31    0.26    0.18    0.08    0.02    0.00    0.00    0.00    0.00       49      21
 2015 178    31    30    5.7      0  0.814    245     83      0     96    329    329      0     0.0  0.000      0      0  0.000  0.000  0.000  0.000  0.000  0.000  0.000    3.71   0.00   0.00      0      0  331.9   0.22   0.22    5.1   0.51    0.32    0.26    0.19    0.08    0.02    0.00    0.00    0.00    0.00       49      22
 2015 179    32    31    5.9      0  0.896    270     96      0     99    366    366      0     0.0  0.000      0      0  0.000  0.000  0.000  0.000  0.000  0.000  0.000    3.80   0.00   0.00      0      0  331.3   0.23   0.23    5.2   0.51    0.33    0.27    0.19    0.08    0.03    0.00    0.00    0.00    0.00       49      24
 2015 180    33    32    6.2      0  1.001    302    112      0    103    414    414      0     0.0  0.000      0      0  0.000  0.000  0.000  0.000  0.000  0.000  0.000    3.83   0.00   0.00      0      0  331.6   0.25   0.24    5.5   0.51    0.34    0.28    0.20    0.09    0.03    0.00    0.00    0.00    0.00       49      26
 2015 181    34    33    6.3      0  1.058    331    127      0    119    459    459      0     0.0  0.000      0      0  0.000  0.225  0.129  0.000  0.000  0.000  0.000    3.62   0.00   0.00      0      0  319.4   0.26   0.25    6.3   0.51    0.39    0.32    0.23    0.10    0.03    0.00    0.00    0.00    0.00       52      27
 2015 182    35    34    6.6      1  1.181    366    148      0    123    514    514      0     0.0  0.000      0      0  0.000  0.000  0.000  0.000  0.000  0.000  0.000    3.64   0.00   0.00      0      0  322.9   0.27   0.26    6.7   0.51    0.40    0.33    0.24    0.11    0.03    0.00    0.00    0.00    0.00       54      29
 2015 183    36    35    6.8      1  1.288    397    168      0    127    565    565      0     0.0  0.000      0      0  0.000  0.000  0.000  0.000  0.000  0.000  0.000    3.80   0.00   0.00      0      0  324.1   0.29   0.28    7.0   0.51    0.42    0.34    0.25    0.11    0.03    0.00    0.00    0.00    0.00       59      31
 2015 184    37    36    7.0      1  1.364    423    192      0    133    615    615      0     0.0  0.000      0      0  0.000  0.000  0.000  0.000  0.000  0.000  0.000    3.77   0.00   0.00      0      0  322.4   0.31   0.29    8.1   0.51    0.44    0.36    0.26    0.12    0.04    0.00    0.00    0.00    0.00       84      34
 2015 185    38    37    7.3      3  1.438    451    216      0    138    668    668      0     0.0  0.000      0      0  0.000  0.000  0.000  0.000  0.000  0.000  0.000    3.88   0.00   0.00      0      0  318.5   0.33   0.31    7.8   0.51    0.45    0.37    0.27    0.12    0.04    0.00    0.00    0.00    0.00       97      36
 2015 186    39    38    7.5      3  1.489    473    240      0    143    713    714      0     0.0  0.000      1      2  0.000  0.000  0.000  0.000  0.000  0.000  0.000    3.97   0.00   0.00      0      1  314.7   0.35   0.32    7.5   0.51    0.47    0.38    0.28    0.13    0.04    0.00    0.00    0.00    0.00      119      39
 2015 187    40    39    7.7      3  1.528    489    261      0    147    750    757      0     0.0  0.000      6     17  0.000  0.000  0.000  0.000  0.000  0.000  0.000    4.06   0.00   0.01      0      6  312.3   0.37   0.33    7.2   0.51    0.48    0.39    0.28    0.13    0.04    0.00    0.00    0.00    0.00      141      41
 2015 188    41    40    7.9      3  1.538    491    272      0    148    763    781      0     0.0  0.000     18     33  0.000  0.000  0.000  0.000  0.000  0.000  0.000    4.14   0.00   0.02      0     18  313.1   0.40   0.35    6.9   0.51    0.48    0.39    0.29    0.13    0.04    0.00    0.00    0.00    0.00      162      44
 2015 189    42    41    8.1      3  1.523    486    272      0    147    758    791      0     0.0  0.000     33     44  0.000  0.000  0.000  0.000  0.000  0.000  0.000    4.20   0.00   0.04      0     33  313.4   0.44   0.37    6.6   0.51    0.48    0.39    0.28    0.13    0.04    0.00    0.00    0.00    0.00      172      46
 2015 190    43    42    8.3      3  1.577    511    297      0    150    808    858      0     0.0  0.000     50     50  0.000  0.000  0.000  0.000  0.000  0.000  0.000    4.18   0.00   0.06      0     50  308.6   0.45   0.38    6.4   0.51    0.49    0.40    0.29    0.13    0.04    0.00    0.00    0.00    0.00      175      48
 2015 191    44    43    8.5      5  1.555    519    317      0    173    836    910      0     0.0  0.000     74     67  0.061  0.374  0.001  0.000  0.000  0.000  0.000    4.10   0.00   0.08      0     74  299.5   0.46   0.39    7.1   0.51    0.57    0.46    0.34    0.16    0.05    0.00    0.00    0.00    0.00      190      51
 2015 192    45    44    8.7      5  1.601    543    342      0    175    886    991      7     0.0  0.000    106     91  0.000  0.000  0.000  0.000  0.000  0.000  0.000    4.10   0.00   0.11      0    106  294.6   0.48   0.40    6.8   0.51    0.57    0.46    0.34    0.16    0.05    0.00    0.00    0.00    0.00      190      54
 2015 193    46    45    9.0      5  1.617    557    361      1    177    918   1058     69     0.8  0.001    140    110  0.000  0.000  0.000  0.000  0.000  0.000  0.000    4.14   0.41   0.13      0    140  290.4   0.50   0.41    6.5   0.51    0.58    0.47    0.34    0.16    0.05    0.00    0.00    0.00    0.00      204      57
 2015 194    47    46    9.2      5  1.584    563    393      7    176    956   1140    130     5.0  0.006    184    124  0.000  0.000  0.052  0.000  0.000  0.000  0.000    4.01   3.57   0.16      0    184  281.3   0.52   0.42    7.6   0.51    0.57    0.46    0.34    0.16    0.05    0.00    0.00    0.00    0.00      224      61
 2015 195    48    47    9.4      5  1.573    563    401     18    175    964   1206    198     9.1  0.015    242    149  0.000  0.000  0.000  0.000  0.000  0.000  0.000    4.02   7.40   0.20      0    242  279.4   0.54   0.43    7.3   0.51    0.57    0.46    0.34    0.16    0.05    0.00    0.00    0.00    0.00      240      64
 2015 196    49    48    9.7      5  1.578    565    404     35    173    970   1283    268    13.0  0.027    313    169  0.000  0.000  0.000  0.000  0.000  0.000  0.000    4.06  11.16   0.24      0    313  279.0   0.56   0.45    7.0   0.51    0.56    0.46    0.33    0.16    0.05    0.00    0.00    0.00    0.00      246      67
 2015 197    50    49    9.9      5  1.556    557    400     59    170    957   1354    365    16.1  0.043    396    187  0.000  0.000  0.000  0.000  0.000  0.000  0.000    4.03  14.84   0.29      0    396  279.5   0.59   0.45    6.7   0.51    0.55    0.45    0.33    0.16    0.05    0.00    0.00    0.00    0.00      259      70
 2015 198    51    50    9.9      5  1.533    562    427     91    167    990   1442    451    20.1  0.063    452    208  0.000  0.219  0.086  0.000  0.000  0.000  0.000    3.89  20.07   0.31      0    452  272.7   0.60   0.45    7.5   0.51    0.55    0.44    0.32    0.15    0.05    0.00    0.00    0.00    0.00      272      73
 2015 199    52    51    9.9      5  1.509    551    421    130    164    973   1505    514    25.2  0.086    533    233  0.000  0.000  0.000  0.000  0.000  0.000  0.000    3.86  24.35   0.35      0    533  273.7   0.62   0.45    7.2   0.51    0.54    0.44    0.32    0.15    0.05    0.00    0.00    0.00    0.00      283      76
 2015 200    53    52    9.9      5  1.484    540    415    175    161    955   1572    626    28.0  0.112    618    250  0.000  0.000  0.000  0.000  0.000  0.000  0.000    3.83  28.39   0.39      0    618  274.9   0.65   0.45    6.9   0.51    0.53    0.43    0.31    0.15    0.05    0.00    0.00    0.00    0.00      297      79
 2015 201    54    53    9.9      5  1.456    527    408    232    158    935   1645    716    32.4  0.141    710    270  0.000  0.000  0.000  0.000  0.000  0.000  0.000    3.80  32.60   0.43      0    710  276.1   0.67   0.45    6.6   0.51    0.52    0.42    0.31    0.15    0.05    0.00    0.00    0.00    0.00      310      82
 2015 202    55    54    9.9      5  1.428    515    400    296    155    915   1710    782    37.8  0.173    795    288  0.000  0.194  0.000  0.000  0.000  0.000  0.000    3.76  37.20   0.46      0    795  277.3   0.67   0.45    6.4   0.51    0.51    0.41    0.30    0.14    0.05    0.00    0.00    0.00    0.00      327      85
 2015 203    56    55    9.9      5  1.389    498    392    366    151    890   1750    784    46.7  0.209    860    288  0.443  0.629  0.000  0.000  0.000  0.000  0.000    3.69  42.57   0.49      0    860  278.7   0.67   0.45    6.1   0.51    0.50    0.41    0.30    0.14    0.05    0.00    0.00    0.00    0.00      339      88
 2015 204    57    56    9.9      5  1.345    480    383    438    148    863   1790    784    55.9  0.245    927    261  0.410  0.606  0.000  0.000  0.000  0.000  0.000    3.62  47.30   0.52      0    927  280.2   0.67   0.45    5.9   0.51    0.49    0.40    0.29    0.14    0.04    0.00    0.00    0.00    0.00      352      92
 2015 205    58    57    9.9      5  1.312    467    378    510    145    845   1860    802    63.6  0.274   1015    244  0.000  0.000  0.000  0.000  0.000  0.000  0.000    3.55  50.23   0.55      0   1015  280.8   0.67   0.45    6.2   0.51    0.48    0.39    0.29    0.13    0.04    0.00    0.00    0.00    0.00      368      94
 2015 206    59    58    9.9      5  1.278    453    370    584    142    822   1921    837    69.8  0.304   1099    248  0.000  0.000  0.000  0.000  0.000  0.000  0.000    3.49  53.16   0.57      0   1099  282.4   0.67   0.45    6.0   0.51    0.47    0.38    0.28    0.13    0.04    0.00    0.00    0.00    0.00      388      97
 2015 207    60    59    9.9      5  1.160    408    353    661    139    761   1942    878    75.3  0.341   1181    248  0.000  0.000  0.000  0.000  0.000  0.000  0.000    3.42  56.02   0.61      0   1181  284.1   0.67   0.45    5.7   0.51    0.46    0.37    0.27    0.13    0.04    0.00    0.00    0.00    0.00      448     100
 2015 208    61    60    9.9      5  1.057    370    338    741    136    708   1965    896    82.6  0.377   1257    229  0.078  0.385  0.000  0.000  0.000  0.000  0.000    3.34  58.92   0.64      0   1257  285.8   0.67   0.45    5.5   0.51    0.45    0.37    0.27    0.13    0.04    0.00    0.00    0.00    0.00      496     103
 2015 209    62    61    9.9      5  1.031    362    338    808    133    699   2021    896    90.2  0.400   1322    237  0.000  0.236  0.000  0.000  0.000  0.000  0.000    3.25  61.17   0.65      0   1322  285.1   0.67   0.45    5.6   0.51    0.45    0.36    0.26    0.12    0.04    0.00    0.00    0.00    0.00      504     106
 2015 210    63    62    9.9      5  1.003    353    338    887    131    691   2088    896    98.9  0.425   1397    237  0.000  0.000  0.000  0.000  0.000  0.000  0.000    3.15  63.49   0.67      0   1397  284.1   0.67   0.45    5.7   0.51    0.44    0.35    0.26    0.12    0.04    0.00    0.00    0.00    0.00      512     108
 2015 211    64    63    9.9      5  0.975    341    331    969    128    672   2148    901   107.5  0.451   1476    219  0.000  0.000  0.000  0.000  0.000  0.000  0.000    3.07  65.66   0.69      0   1476  286.0   0.67   0.45    5.5   0.51    0.43    0.35    0.26    0.12    0.04    0.00    0.00    0.00    0.00      522     111
 2015 212    65    64    9.9      7  0.937    326    323   1050    125    648   2201    904   116.1  0.477   1553    204  0.000  0.019  0.000  0.000  0.000  0.000  0.000    2.99  67.61   0.71      0   1553  287.9   0.67   0.45    5.2   0.51    0.42    0.34    0.25    0.12    0.04    0.00    0.00    0.00    0.00      536     114
 2015 213    66    65    9.9      7  0.694    244    308   1113    123    552   2164    904   123.1  0.514   1613    204  0.033  0.356  0.145  0.000  0.000  0.000  0.000    2.78  69.00   0.75      0   1613  284.5   0.67   0.45    5.2   0.51    0.41    0.34    0.25    0.12    0.04    0.00    0.00    0.00    0.00      642     116
 2015 214    67    66    9.9      7  0.514    179    285   1173    121    464   2133    904   129.7  0.550   1669    196  0.000  0.000  0.000  0.000  0.000  0.000  0.000    2.65  70.26   0.78      0   1669  287.0   0.67   0.45    5.2   0.51    0.41    0.33    0.24    0.11    0.04    0.00    0.00    0.00    0.00      721     118
 2015 215    68    67    9.9      7  0.382    132    268   1219    118    399   2111    904   134.9  0.578   1712    196  0.000  0.000  0.000  0.000  0.000  0.000  0.000    2.53  71.23   0.81      0   1712  289.5   0.67   0.45    5.0   0.51    0.40    0.32    0.24    0.11    0.04    0.00    0.00    0.00    0.00      779     120
 2015 216    69    68    9.9      7  0.283     98    256   1255    116    354   2098    904   138.7  0.598   1744    196  0.000  0.000  0.000  0.000  0.000  0.000  0.000    2.40  71.92   0.83      0   1744  290.6   0.67   0.45    5.0   0.51    0.39    0.32    0.23    0.11    0.04    0.00    0.00    0.00    0.00      822     123
 2015 217    70    69    9.9      7  0.210     72    245   1282    114    317   2086    904   141.8  0.615   1769    195  0.000  0.000  0.000  0.000  0.000  0.000  0.000    2.28  72.49   0.85      0   1769  293.0   0.67   0.45    4.8   0.51    0.38    0.31    0.23    0.11    0.03    0.00    0.00    0.00    0.00      854     125
 2015 218    71    70    9.9      7  0.156     53    237   1302    111    290   2075    904   144.0  0.627   1786    195  0.000  0.000  0.000  0.000  0.000  0.000  0.000    2.18  72.93   0.86      0   1786  295.4   0.67   0.45    4.6   0.51    0.38    0.30    0.22    0.11    0.03    0.00    0.00    0.00    0.00      877     128
 2015 219    72    71    9.9      7  0.116     39    230   1317    109    269   2066    904   145.6  0.637   1797    195  0.000  0.000  0.000  0.000  0.000  0.000  0.000    2.08  73.26   0.87      0   1797  297.6   0.67   0.45    4.4   0.51    0.37    0.30    0.22    0.10    0.03    0.00    0.00    0.00    0.00      894     130
 2015 220    73    72    9.9      7  0.087     29    225   1325    107    254   2058    904   146.6  0.644   1804    195  0.000  0.000  0.000  0.000  0.000  0.000  0.000    2.02  73.47   0.88      0   1804  299.7   0.67   0.45    4.2   0.51    0.36    0.29    0.22    0.10    0.03    0.00    0.00    0.00    0.00      907     132
 2015 221    74    73    9.9      8  0.065     22    221   1330    105    242   2050    904   147.1  0.649   1807    195  0.000  0.000  0.000  0.000  0.000  0.000  0.000    1.99  73.60   0.88      0   1807  301.5   0.67   0.45    4.1   0.51    0.36    0.29    0.21    0.10    0.03    0.00    0.00    0.00    0.00      916     134

*DSSAT Cropping System Model Ver. 4.7.5.007 -  MAR 01, 2026 21:01:02
!                                                                                                                                                                                                                                                    Root Dens. (cm/cm3) by soil depth (cm):
!                                                                                                                                                                                                                                                   0-10   10-20   20-30   30-40   40-50   50-60   60-70   70-80   80-90
@YEAR DOY   DAS   DAP   L#SD   GSTD   LAID   LWAD   SWAD   GWAD   RWAD   VWAD   CWAD   G#AD    GWGD   HIAD   PWAD   P#AD   WSPD   WSGD   NSTD  PST1A  PST2A   KSTD   EWSD    LN%D   SH%D   HIPD   PWDD   PWTD   SLAD   CHTD   CWID   NWAD   RDPD    RL1D    RL2D    RL3D    RL4D    RL5D    RL6D    RL7D    RL8D    RL9D    SNW0C   SNW1C
 2015 161     1     0    0.0      0  0.000      0      0      0      0      0      0      0     0.0  0.000      0      0  0.000  0.000  0.000  0.000  0.000  0.000  0.000    0.00   0.00   0.00      0      0    0.0   0.00   0.00    0.0   0.00    0.00    0.00    0.00    0.00    0.00    0.00    0.00    0.00    0.00        0       0
 2015 162     2     1    0.0      0  0.000      0      0      0      0      0      0      0     0.0  0.000      0      0  0.000  0.000  0.000  0.000  0.000  0.000  0.000    0.00   0.00   0.00      0      0    0.0   0.00   0.00    0.0   0.00    0.00    0.00    0.00    0.00    0.00    0.00    0.00    0.00    0.00        0       0
 2015 163     3     2    0.0      0  0.000      0      0      0      0      0      0      0     0.0  0.000      0      0  0.000  0.000  0.000  0.000  0.000  0.000  0.000    0.00   0.00   0.00      0      0    0.0   0.00   0.00    0.0   0.00    0.00    0.00    0.00    0.00    0.00    0.00    0.00    0.00    0.00        0       0
 2015 164     4     3    0.0      0  0.000      0      0      0      0      0      0      0     0.0  0.000      0      0  0.000  0.000  0.000  0.000  0.000  0.000  0.000    0.00   0.00   0.00      0      0    0.0   0.00   0.00    0.0   0.00    0.00    0.00    0.00    0.00    0.00    0.00    0.00    0.00    0.00        0       0
 2015 165     5     4    0.2      0  0.028     13      6      0     18     19     19      0     0.0  0.000      0      0  0.000  0.000  0.000  0.000  0.000  0.000  0.012    3.84   0.00   0.00      0      0  216.4   0.04   0.03    4.5   0.27    0.07    0.07    0.03    0.00    0.00    0.00    0.00    0.00    0.00        0       1
 2015 166     6     5    0.4      0  0.036     15      6      0     19     21     21      0     0.0  0.000      0      0  0.000  0.000  0.000  0.000  0.000  0.000  0.000    3.85   0.00   0.00      0      0  238.1   0.05   0.03    4.4   0.29    0.07    0.07    0.03    0.00    0.00    0.00    0.00    0.00    0.00        0       1
 2015 167     7     6    0.7      0  0.045     17      6      0     19     23     23      0     0.0  0.000      0      0  0.000  0.000  0.000  0.000  0.000  0.000  0.000    3.85   0.00   0.00      0      0  258.4   0.06   0.03    4.2   0.31    0.07    0.07    0.03    0.00    0.00    0.00    0.00    0.00    0.00        0       2
 2015 168     8     7    0.9      0  0.056     20      7      0     19     27     27      0     0.0  0.000      0      0  0.000  0.000  0.000  0.000  0.000  0.000  0.000    3.85   0.00   0.00      0      0  281.6   0.07   0.04    4.1   0.32    0.07    0.07    0.04    0.00    0.00    0.00    0.00    0.00    0.00        0       2
 2015 169     9     8    1.2      0  0.068     23      7      0     20     30     30      0     0.0  0.000      0      0  0.000  0.000  0.000  0.000  0.000  0.000  0.000    3.85   0.00   0.00      0      0  297.3   0.08   0.05    4.1   0.34    0.07    0.07    0.04    0.00    0.00    0.00    0.00    0.00    0.00        0       2
 2015 170    10     9    1.4      0  0.081     26      9      0     21     35     35      0     0.0  0.000      0      0  0.000  0.000  0.000  0.000  0.000  0.000  0.002    3.82   0.00   0.00      0      0  309.6   0.08   0.05    4.2   0.36    0.08    0.07    0.04    0.00    0.00    0.00    0.00    0.00    0.00        0       3
 2015 171    11    10    1.6      0  0.090     29     10      0     22     39     39      0     0.0  0.000      0      0  0.000  0.000  0.000  0.000  0.000  0.000  0.000    3.84   0.00   0.00      0      0  314.1   0.09   0.06    4.1   0.38    0.08    0.08    0.04    0.00    0.00    0.00    0.00    0.00    0.00        0       3
 2015 172    12    11    1.9      0  0.105     33     11      0     23     44     44      0     0.0  0.000      0      0  0.000  0.000  0.000  0.000  0.000  0.000  0.000    3.84   0.00   0.00      0      0  320.4   0.10   0.06    4.1   0.39    0.08    0.08    0.04    0.00    0.00    0.00    0.00    0.00    0.00        0       4
[...]
 2016 164    11    10    1.7      0  0.091     29     10      0     22     39     39      0     0.0  0.000      0      0  0.000  0.000  0.000  0.000  0.000  0.000  0.000    3.85   0.00   0.00      0      0  317.2   0.09   0.06    4.0   0.38    0.08    0.07    0.04    0.00    0.00    0.00    0.00    0.00    0.00        0       3
 2016 165    12    11    1.9      0  0.104     33     11      0     22     44     44      0     0.0  0.000      0      0  0.000  0.000  0.000  0.000  0.000  0.000  0.000    3.85   0.00   0.00      0      0  316.6   0.10   0.06    3.9   0.40    0.08    0.08    0.04    0.00    0.00    0.00    0.00    0.00    0.00        0       4
 2016 166    13    12    2.2      0  0.125     38     12      0     23     51     51      0     0.0  0.000      0      0  0.000  0.000  0.000  0.000  0.000  0.000  0.000    3.86   0.00   0.00      0      0  328.2   0.10   0.07    3.8   0.41    0.08    0.08    0.04    0.00    0.00    0.00    0.00    0.00    0.00        0       4
 2016 167    14    13    2.4      0  0.153     45     14      0     23     59     59      0     0.0  0.000      0      0  0.000  0.000  0.000  0.000  0.000  0.000  0.000    3.86   0.00   0.00      0      0  339.3   0.11   0.07    3.8   0.43    0.08    0.08    0.04    0.01    0.00    0.00    0.00    0.00    0.00        0       5
 2016 168    15    14    2.7      0  0.181     53     16      0     24     69     69      0     0.0  0.000      0      0  0.000  0.000  0.000  0.000  0.000  0.000  0.000    3.86   0.00   0.00      0      0  342.4   0.12   0.08    3.8   0.45    0.09    0.08    0.05    0.01    0.00    0.00    0.00    0.00    0.00        0       5
 2016 169    16    15    2.9      0  0.211     62     19      0     25     80     80      0     0.0  0.000      0      0  0.000  0.000  0.000  0.000  0.000  0.000  0.000    3.83   0.00   0.00      0      0  342.5   0.12   0.09    3.8   0.47    0.09    0.08    0.05    0.01    0.00    0.00    0.00    0.00    0.00        1       6
 2016 170    17    16    3.2      0  0.248     72     22      0     26     94     94      0     0.0  0.000      0      0  0.000  0.000  0.000  0.000  0.000  0.000  0.000    3.84   0.00   0.00      0      0  343.8   0.13   0.09    3.8   0.49    0.09    0.08    0.05    0.01    0.00    0.00    0.00    0.00    0.00        1       6
 2016 171    18    17    3.5      0  0.296     85     26      0     27    110    110      0     0.0  0.000      0      0  0.000  0.000  0.000  0.000  0.000  0.000  0.000    3.72   0.00   0.00      0      0  349.7   0.14   0.11    4.5   0.50    0.10    0.09    0.05    0.01    0.00    0.00    0.00    0.00    0.00        1       7
 2016 172    19    18    3.7      0  0.350     99     30      0     29    128    128      0     0.0  0.000      0      0  0.000  0.006  0.000  0.000  0.000  0.000  0.000    3.71   0.00   0.00      0      0  354.9   0.15   0.12    4.6   0.50    0.10    0.09    0.06    0.01    0.00    0.00    0.00    0.00    0.00        2       7
 2016 173    20    19    4.0      0  0.418    115     35      0     30    150    150      0     0.0  0.000      0      0  0.000  0.000  0.000  0.000  0.000  0.000  0.000    3.74   0.00   0.00      0      0  364.1   0.15   0.13    4.5   0.50    0.10    0.09    0.06    0.01    0.00    0.00    0.00    0.00    0.00        3       8
 2016 174    21    20    4.3      0  0.505    134     41      0     32    175    175      0     0.0  0.000      0      0  0.000  0.000  0.000  0.000  0.000  0.000  0.000    3.67   0.00   0.00      0      0  378.3   0.17   0.15    5.3   0.50    0.11    0.10    0.06    0.02    0.00    0.00    0.00    0.00    0.00        4       9
 2016 175    22    21    4.5      0  0.601    155     48      0     33    203    203      0     0.0  0.000      0      0  0.000  0.000  0.000  0.000  0.000  0.000  0.000    3.66   0.00   0.00      0      0  387.6   0.18   0.17    5.5   0.50    0.12    0.10    0.06    0.02    0.00    0.00    0.00    0.00    0.00        6       9
 2016 176    23    22    4.8      0  0.683    180     56      0     40    237    237      0     0.0  0.000      0      0  0.000  0.066  0.122  0.000  0.000  0.000  0.000    3.43   0.00   0.00      0      0  378.9   0.19   0.19    6.4   0.50    0.14    0.12    0.08    0.02    0.01    0.00    0.00    0.00    0.00        7      10
 2016 177    24    23    5.0      0  0.769    204     70      0     46    273    273      0     0.0  0.000      0      0  0.000  0.042  0.000  0.000  0.000  0.000  0.000    3.41   0.00   0.00      0      0  377.7   0.21   0.21    7.5   0.50    0.15    0.13    0.09    0.03    0.01    0.00    0.00    0.00    0.00        9      11
 2016 178    25    24    5.3      0  0.855    229     85      0     51    314    314      0     0.0  0.000      0      0  0.000  0.021  0.032  0.000  0.000  0.000  0.000    3.27   0.00   0.00      0      0  373.0   0.22   0.22    8.7   0.50    0.17    0.15    0.10    0.04    0.01    0.00    0.00    0.00    0.00       11      12
 2016 179    26    25    5.5      0  0.950    257    101      0     56    358    358      0     0.0  0.000      0      0  0.000  0.010  0.000  0.000  0.000  0.000  0.000    3.29   0.00   0.00      0      0  370.2   0.24   0.24   10.2   0.50    0.19    0.16    0.11    0.04    0.01    0.00    0.00    0.00    0.00       13      12
 2016 180    27    26    5.8      0  1.043    285    119      0     61    404    404      0     0.0  0.000      0      0  0.000  0.017  0.000  0.000  0.000  0.000  0.000    3.33   0.00   0.00      0      0  365.6   0.25   0.25   10.5   0.50    0.21    0.17    0.12    0.05    0.01    0.00    0.00    0.00    0.00       15      13
 2016 181    28    27    6.0      0  1.167    319    139      0     66    458    458      0     0.0  0.000      0      0  0.000  0.000  0.000  0.000  0.000  0.000  0.000    3.38   0.00   0.00      0      0  366.3   0.27   0.27   10.7   0.50    0.22    0.19    0.13    0.05    0.02    0.00    0.00    0.00    0.00       16      15
 2016 182    29    28    6.2      0  1.306    351    161      0     72    512    512      0     0.0  0.000      0      0  0.000  0.000  0.000  0.000  0.000  0.000  0.000    3.30   0.00   0.00      0      0  371.7   0.28   0.28   12.5   0.50    0.24    0.20    0.14    0.06    0.02    0.00    0.00    0.00    0.00       22      16
 2016 183    30    29    6.5      0  1.425    384    185      0     79    569    569      0     0.0  0.000      0      0  0.000  0.000  0.000  0.000  0.000  0.000  0.000    3.37   0.00   0.00      0      0  370.9   0.30   0.30   13.0   0.50    0.26    0.22    0.15    0.06    0.02    0.00    0.00    0.00    0.00       34      17
 2016 184    31    30    6.7      0  1.552    416    209      0     85    626    626      0     0.0  0.000      0      0  0.000  0.000  0.000  0.000  0.000  0.000  0.000    3.53   0.00   0.00      0      0  372.8   0.33   0.32   13.1   0.50    0.28    0.23    0.16    0.07    0.02    0.00    0.00    0.00    0.00       45      19
 2016 185    32    31    7.0      0  1.628    444    235      0    102    679    679      0     0.0  0.000      0      0  0.000  0.000  0.127  0.000  0.000  0.000  0.000    3.42   0.00   0.00      0      0  366.8   0.35   0.33   15.4   0.50    0.33    0.28    0.20    0.09    0.03    0.00    0.00    0.00    0.00       70      20
 2016 186    33    32    7.3      1  1.761    476    266      0    109    742    742      0     0.0  0.000      0      0  0.000  0.000  0.000  0.000  0.000  0.000  0.000    3.48   0.00   0.00      0      0  370.2   0.37   0.35   15.9   0.50    0.36    0.29    0.21    0.09    0.03    0.00    0.00    0.00    0.00       88      22
 2016 187    34    33    7.5      1  1.889    508    298      0    116    806    806      0     0.0  0.000      0      0  0.000  0.000  0.000  0.000  0.000  0.000  0.000    3.68   0.00   0.00      0      0  372.1   0.40   0.37   16.1   0.50    0.38    0.31    0.22    0.10    0.03    0.00    0.00    0.00    0.00      107      24
 2016 188    35    34    7.8      1  1.960    526    326      0    122    852    852      0     0.0  0.000      0      0  0.000  0.000  0.000  0.000  0.000  0.000  0.000    3.91   0.00   0.00      0      0  372.6   0.42   0.38   16.2   0.50    0.40    0.33    0.23    0.11    0.03    0.00    0.00    0.00    0.00      139      27
 2016 189    36    35    8.0      3  2.016    552    368      0    131    920    920      0     0.0  0.000      0      0  0.000  0.000  0.000  0.000  0.000  0.000  0.000    3.85   0.00   0.00      0      0  365.1   0.45   0.40   19.0   0.50    0.43    0.35    0.25    0.12    0.04    0.00    0.00    0.00    0.00      174      29
 2016 190    37    36    8.3      3  2.120    588    412      0    139   1001   1006      0     0.0  0.000      6     15  0.000  0.000  0.000  0.000  0.000  0.000  0.000    3.85   0.00   0.01      0      6  360.3   0.47   0.42   19.0   0.50    0.45    0.37    0.27    0.12    0.04    0.00    0.00    0.00    0.00      189      32
 2016 191    38    37    8.6      3  2.215    622    449      0    144   1072   1093      0     0.0  0.000     21     43  0.000  0.000  0.000  0.000  0.000  0.000  0.000    3.91   0.00   0.02      0     21  356.1   0.50   0.43   18.2   0.50    0.47    0.38    0.28    0.13    0.04    0.00    0.00    0.00    0.00      196      35
 2016 192    39    38    8.9      3  2.251    645    493      0    151   1138   1184      0     0.0  0.000     46     67  0.000  0.000  0.000  0.000  0.000  0.000  0.000    3.81   0.00   0.04      0     46  348.9   0.52   0.45   21.3   0.50    0.49    0.40    0.29    0.14    0.04    0.00    0.00    0.00    0.00      220      38
 2016 193    40    39    9.2      3  2.303    670    531      0    156   1200   1283      0     0.0  0.000     83    101  0.000  0.000  0.000  0.000  0.000  0.000  0.000    3.77   0.00   0.06      0     83  344.0   0.56   0.45   20.5   0.50    0.51    0.41    0.30    0.14    0.05    0.00    0.00    0.00    0.00      231      42
 2016 194    41    40    9.5      5  2.365    696    560      0    158   1256   1388      0     0.0  0.000    132    132  0.000  0.000  0.000  0.000  0.000  0.000  0.000    3.88   0.00   0.10      0    132  339.9   0.58   0.45   19.6   0.50    0.51    0.42    0.31    0.14    0.05    0.00    0.00    0.00    0.00      232      46
 2016 195    42    41    9.7      5  2.364    701    579      0    159   1281   1468     63     0.0  0.000    188    158  0.000  0.000  0.000  0.000  0.000  0.000  0.000    3.97   0.00   0.13      0    188  337.0   0.61   0.45   18.8   0.50    0.52    0.42    0.31    0.14    0.05    0.00    0.00    0.00    0.00      251      50
 2016 196    43    42   10.0      5  2.323    702    606      6    159   1309   1564    185     3.1  0.004    255    183  0.000  0.000  0.000  0.000  0.000  0.000  0.000    3.90   2.25   0.16      0    255  330.7   0.65   0.45   22.0   0.50    0.52    0.42    0.31    0.14    0.05    0.00    0.00    0.00    0.00      277      53
 2016 197    44    43   10.3      5  2.308    702    615     23    159   1317   1663    287     7.9  0.014    346    216  0.000  0.000  0.000  0.000  0.000  0.000  0.000    3.88   6.53   0.21      0    346  328.9   0.68   0.45   21.1   0.50    0.52    0.42    0.31    0.14    0.05    0.00    0.00    0.00    0.00      289      57
 2016 198    45    44   10.5      5  2.308    700    614     48    156   1315   1763    432    11.2  0.027    448    246  0.000  0.000  0.000  0.000  0.000  0.000  0.000    3.92  10.81   0.25      0    448  329.5   0.71   0.45   20.2   0.50    0.51    0.41    0.30    0.14    0.05    0.00    0.00    0.00    0.00      297      61
 2016 199    46    45   10.8      5  2.272    688    607     89    153   1295   1855    564    15.8  0.048    560    272  0.000  0.000  0.000  0.000  0.000  0.000  0.000    3.89  15.90   0.30      0    560  330.4   0.74   0.45   19.4   0.50    0.50    0.40    0.30    0.14    0.04    0.00    0.00    0.00    0.00      312      65
 2016 200    47    46   10.8      5  2.240    676    601    137    150   1278   1940    678    20.2  0.071    662    302  0.000  0.000  0.000  0.000  0.000  0.000  0.000    3.86  20.70   0.34      0    662  331.2   0.76   0.45   18.6   0.50    0.49    0.40    0.29    0.14    0.04    0.00    0.00    0.00    0.00      325      68
 2016 201    48    47   10.8      5  2.202    672    616    197    147   1289   2044    790    25.0  0.097    755    325  0.000  0.000  0.000  0.000  0.000  0.000  0.000    3.77  26.13   0.37      0    755  327.7   0.79   0.45   20.9   0.50    0.48    0.39    0.29    0.13    0.04    0.00    0.00    0.00    0.00      340      71
 2016 202    49    48   10.8      5  2.163    658    608    268    144   1266   2133    938    28.6  0.126    867    354  0.000  0.000  0.000  0.000  0.000  0.000  0.000    3.73  30.95   0.41      0    867  328.7   0.82   0.45   20.9   0.50    0.47    0.38    0.28    0.13    0.04    0.00    0.00    0.00    0.00      356      73
 2016 203    50    49   10.8      5  2.121    643    600    353    141   1243   2216   1020    34.6  0.159    973    369  0.000  0.000  0.000  0.000  0.000  0.000  0.000    3.68  36.28   0.44      0    973  329.9   0.84   0.45   20.0   0.50    0.46    0.38    0.27    0.13    0.04    0.00    0.00    0.00    0.00      382      77
 2016 204    51    50   10.8      5  2.078    639    622    445    138   1261   2328   1020    43.6  0.191   1067    371  0.000  0.000  0.000  0.000  0.000  0.000  0.000    3.57  41.66   0.46      0   1067  325.0   0.84   0.45   21.9   0.50    0.45    0.37    0.27    0.13    0.04    0.00    0.00    0.00    0.00      393      79
 2016 205    52    51   10.8      5  2.031    622    612    537    135   1234   2408   1043    51.5  0.223   1174    360  0.000  0.000  0.000  0.000  0.000  0.000  0.000    3.52  45.76   0.49      0   1174  326.3   0.84   0.45   21.9   0.50    0.45    0.36    0.26    0.12    0.04    0.00    0.00    0.00    0.00      413      82
 2016 206    53    52   10.8      5  1.979    604    601    634    132   1205   2496   1065    59.6  0.254   1290    367  0.000  0.000  0.000  0.000  0.000  0.000  0.000    3.45  49.17   0.52      0   1290  327.8   0.84   0.45   21.0   0.50    0.44    0.35    0.26    0.12    0.04    0.00    0.00    0.00    0.00      434      86
 2016 207    54    53   10.8      5  1.933    587    591    732    129   1179   2573   1121    65.3  0.284   1395    375  0.000  0.000  0.000  0.000  0.000  0.000  0.000    3.39  52.46   0.54      0   1395  329.3   0.84   0.45   20.2   0.50    0.43    0.35    0.25    0.12    0.04    0.00    0.00    0.00    0.00      461      89
 2016 208    55    54   10.8      5  1.885    580    608    836    127   1188   2672   1153    72.5  0.313   1484    374  0.000  0.000  0.000  0.000  0.000  0.000  0.000    3.27  56.33   0.56      0   1484  325.2   0.84   0.45   21.3   0.50    0.42    0.34    0.25    0.12    0.04    0.00    0.00    0.00    0.00      483      92
 2016 209    56    55   10.8      5  1.838    563    598    940    124   1160   2752   1182    79.5  0.342   1592    350  0.000  0.000  0.000  0.000  0.000  0.000  0.000    3.20  59.06   0.58      0   1592  326.7   0.84   0.45   21.3   0.50    0.41    0.33    0.24    0.11    0.04    0.00    0.00    0.00    0.00      505      94
 2016 210    57    56   10.8      5  1.794    546    587   1048    121   1133   2838   1196    87.6  0.369   1705    350  0.000  0.000  0.000  0.000  0.000  0.000  0.000    3.13  61.45   0.60      0   1705  328.5   0.84   0.45   21.3   0.50    0.40    0.33    0.24    0.11    0.04    0.00    0.00    0.00    0.00      521      97
 2016 211    58    57   10.8      5  1.749    537    598   1152    119   1135   2939   1198    96.2  0.392   1804    331  0.000  0.000  0.000  0.000  0.000  0.000  0.000    3.02  63.86   0.61      0   1804  325.5   0.84   0.45   21.8   0.50    0.40    0.32    0.24    0.11    0.04    0.00    0.00    0.00    0.00      533      99
 2016 212    59    58   10.8      5  1.705    523    593   1264    116   1116   3031   1199   105.5  0.417   1915    303  0.000  0.000  0.000  0.000  0.000  0.000  0.000    2.93  66.02   0.63      0   1915  325.8   0.84   0.45   22.1   0.50    0.39    0.32    0.23    0.11    0.04    0.00    0.00    0.00    0.00      545     101
 2016 213    60    59   10.8      5  1.665    508    581   1371    114   1089   3108   1211   113.3  0.441   2019    286  0.000  0.000  0.000  0.000  0.000  0.000  0.000    2.86  67.94   0.65      0   2019  327.9   0.84   0.45   22.1   0.50    0.38    0.31    0.23    0.11    0.03    0.00    0.00    0.00    0.00      559     103
 2016 214    61    60   10.8      7  1.624    495    578   1482    112   1074   3198   1211   122.4  0.463   2125    286  0.000  0.000  0.000  0.000  0.000  0.000  0.000    2.76  69.74   0.66      0   2125  327.8   0.84   0.45   22.1   0.50    0.37    0.30    0.22    0.10    0.03    0.00    0.00    0.00    0.00      569     106
 2016 215    62    61   10.8      7  1.204    374    569   1563    110    943   3145   1211   129.1  0.497   2202    273  0.000  0.000  0.280  0.000  0.000  0.000  0.000    2.56  70.98   0.70      0   2202  321.9   0.84   0.45   22.1   0.50    0.37    0.30    0.22    0.10    0.03    0.00    0.00    0.00    0.00      730     108
 2016 216    63    62   10.8      7  0.893    277    538   1649    107    815   3099   1211   136.2  0.532   2284    263  0.000  0.000  0.000  0.000  0.000  0.000  0.000    2.41  72.20   0.74      0   2284  322.5   0.84   0.45   22.1   0.50    0.36    0.29    0.21    0.10    0.03    0.00    0.00    0.00    0.00      852     110
 2016 217    64    63   10.8      7  0.663    203    509   1723    105    712   3065   1211   142.3  0.562   2353    263  0.000  0.000  0.000  0.000  0.000  0.000  0.000    2.29  73.22   0.77      0   2353  325.8   0.84   0.45   22.1   0.50    0.35    0.29    0.21    0.10    0.03    0.00    0.00    0.00    0.00      942     112
 2016 218    65    64   10.8      7  0.492    151    493   1773    103    645   3044   1211   146.5  0.583   2400    261  0.000  0.000  0.102  0.000  0.000  0.000  0.000    2.16  73.90   0.79      0   2400  325.7   0.84   0.45   22.1   0.50    0.35    0.28    0.21    0.10    0.03    0.00    0.00    0.00    0.00     1008     114
 2016 219    66    65   10.8      7  0.366    111    474   1815    101    585   3023   1211   150.0  0.601   2437    261  0.000  0.000  0.000  0.000  0.000  0.000  0.000    2.06  74.48   0.81      0   2437  328.9   0.84   0.45   21.8   0.50    0.34    0.28    0.20    0.09    0.03    0.00    0.00    0.00    0.00     1057     116
 2016 220    67    66   10.8      7  0.273     82    459   1845     99    541   3004   1211   152.4  0.614   2463    261  0.000  0.000  0.000  0.000  0.000  0.000  0.000    1.97  74.91   0.82      0   2463  331.9   0.84   0.45   20.9   0.50    0.33    0.27    0.20    0.09    0.03    0.00    0.00    0.00    0.00     1093     119
 2016 221    68    67   10.8      7  0.203     61    447   1866     97    508   2988   1211   154.1  0.624   2480    261  0.000  0.000  0.000  0.000  0.000  0.000  0.000    1.89  75.22   0.83      0   2480  334.6   0.84   0.45   20.1   0.50    0.33    0.26    0.19    0.09    0.03    0.00    0.00    0.00    0.00     1120     122
 2016 222    69    68   10.8      7  0.151     45    437   1880     95    482   2974   1211   155.3  0.632   2492    261  0.000  0.000  0.000  0.000  0.000  0.000  0.000    1.82  75.46   0.84      0   2492  337.0   0.84   0.45   19.3   0.50    0.32    0.26    0.19    0.09    0.03    0.00    0.00    0.00    0.00     1140     125
 2016 223    70    69   10.8      8  0.113     33    429   1889     93    462   2960   1211   156.1  0.638   2498    261  0.000  0.000  0.000  0.000  0.000  0.000  0.000    1.78  75.62   0.84      0   2498  339.6   0.84   0.45   18.5   0.50    0.31    0.25    0.19    0.09    0.03    0.00    0.00    0.00    0.00     1154     128
