*Soil Inorganic Nitrogen daily output file

*DSSAT Cropping System Model Ver. 4.7.5.007 -  MAR 01, 2026 21:01:02
!                                                                                                                              NO3 (ppm) at soil dep. (cm):                                            NH4 (ppm) at soil dep. (cm):                                            Total Inorganic N @dep(ppm):
!                                                                                                                              0-10   10-20   20-30   30-40   40-50   50-60   60-70   70-80   80-90    0-10   10-20   20-30   30-40   40-50   50-60   60-70   70-80   80-90    0-10   10-20   20-30   30-40   40-50   50-60   60-70   70-80   80-90
@YEAR DOY   DAS  NAPC  NI#M    NIAD    NITD    NHTD    NMNC    NITC    NDNC    NIMC    AMLC   NNMNC    NUCM    NLCC    TDFC    NI1D    NI2D    NI3D    NI4D    NI5D    NI6D    NI7D    NI8D    NI9D    NH1D    NH2D    NH3D    NH4D    NH5D    NH6D    NH7D    NH8D    NH9D    NT1D    NT2D    NT3D    NT4D    NT5D    NT6D    NT7D    NT8D    NT9D    
 2015 102     0     0     0   100.1    90.3     9.8    0.00    0.00    0.00    0.00    0.00    0.00    0.00    0.00    0.00    5.50     5.5     5.5    5.50    5.50    5.50    5.50    5.50    5.50    0.60    0.60    0.60    0.60    0.60    0.60    0.60    0.60    0.60    6.10    6.10    6.10    6.10    6.10    6.10    6.10    6.10    6.10
 2015 103     1    20     1   114.7    92.0    22.7    0.53    1.77    0.00    0.00    0.00    0.53    0.00    0.00    0.00    3.77     5.3     6.1    6.32    6.26    5.81    5.66    5.63    5.61    8.54    0.53    0.53    0.52    0.52    0.52    0.52    0.52    0.52   12.31    5.82    6.59    6.84    6.78    6.33    6.18    6.15    6.13
 2015 104     2    20     1   119.2    93.1    26.1    1.03    2.89    0.00    0.00    0.00    1.03    0.00    0.00    0.00    3.94     5.0     6.0    6.33    6.30    6.24    5.84    5.74    5.67   10.53    0.54    0.54    0.53    0.53    0.52    0.52    0.46    0.46   14.47    5.57    6.51    6.86    6.84    6.76    6.36    6.20    6.13
 2015 105     3    20     1   120.9    94.3    26.5    1.53    4.10    0.00    0.00    0.00    1.53    0.00    0.00    0.00    4.52     5.0     5.9    6.30    6.29    6.24    5.97    5.83    5.77   10.57    0.76    0.55    0.55    0.55    0.53    0.52    0.46    0.41   15.09    5.73    6.41    6.84    6.83    6.77    6.48    6.29    6.18
 2015 106     4    20     1   121.8    95.8    26.0    2.04    5.59    0.00    0.00    0.00    2.04    0.00    0.06    0.00    4.56     4.8     5.8    6.32    6.34    6.32    6.32    6.19    5.94   10.13    0.86    0.57    0.56    0.56    0.54    0.52    0.46    0.37   14.68    5.63    6.35    6.88    6.90    6.86    6.85    6.65    6.31
 2015 107     5    20     1   122.3    96.7    25.6    2.53    6.65    0.00    0.00    0.00    2.53    0.00    0.20    0.00    5.12     4.8     5.7    6.28    6.31    6.30    6.31    6.24    6.05    9.74    0.91    0.60    0.57    0.57    0.56    0.53    0.47    0.38   14.86    5.68    6.28    6.85    6.88    6.85    6.84    6.71    6.43
 2015 108     6    20     1   120.0    95.1    24.9    3.03    7.92    0.48    0.00    0.00    3.03    0.00    2.58    0.00    4.40     4.4     5.4    6.15    6.29    6.31    6.32    6.40    6.48    9.24    0.93    0.62    0.58    0.58    0.57    0.55    0.48    0.39   13.63    5.33    6.03    6.74    6.87    6.88    6.86    6.88    6.87
 2015 109     7    20     1   117.0    92.6    24.3    3.51    8.92    1.08    0.00    0.00    3.51    0.10    5.40    0.00    4.95     4.3     5.1    5.88    6.04    6.07    6.08    6.15    6.27    8.83    0.94    0.64    0.60    0.59    0.58    0.56    0.50    0.40   13.77    5.20    5.78    6.47    6.63    6.65    6.64    6.64    6.67
 2015 110     8    20     1   116.7    93.3    23.4    4.03   10.32    1.44    0.00    0.00    4.03    0.23    5.69    0.00    5.22     4.5     5.2    5.89    6.01    6.03    6.03    6.09    6.23    8.27    0.93    0.64    0.60    0.60    0.58    0.56    0.50    0.41   13.50    5.39    5.89    6.50    6.60    6.61    6.59    6.59    6.64
 2015 111     9    20     1   116.4    93.4    23.0    4.54   11.19    1.92    0.00    0.00    4.54    0.30    5.95    0.00    4.88     4.4     5.2    6.01    6.25    6.19    6.06    6.06    6.17    8.01    0.93    0.65    0.61    0.60    0.59    0.57    0.51    0.42   12.89    5.33    5.86    6.62    6.85    6.78    6.62    6.57    6.60
 2015 112    10    20     1   113.9    91.4    22.5    5.05   12.20    2.49    0.00    0.00    5.05    0.41    8.30    0.00    5.33     4.3     5.0    5.74    5.99    5.99    5.92    5.94    6.04    7.64    0.93    0.66    0.62    0.61    0.59    0.57    0.52    0.43   12.97    5.20    5.63    6.36    6.60    6.59    6.49    6.45    6.47
 2015 113    11    20     1   113.7    92.1    21.6    5.57   13.52    2.81    0.00    0.00    5.57    0.65    8.49    0.00    4.51     4.2     5.0    5.80    6.14    6.28    6.34    6.20    6.09    7.14    0.92    0.66    0.62    0.61    0.59    0.57    0.52    0.44   11.65    5.12    5.63    6.42    6.75    6.87    6.91    6.72    6.53
 2015 114    12    20     1   113.3    92.0    21.3    6.07   14.29    3.42    0.00    0.00    6.07    0.72    8.70    0.00    4.85     4.2     4.9    5.73    6.06    6.20    6.26    6.20    6.12    6.90    0.92    0.67    0.63    0.62    0.60    0.58    0.52    0.44   11.75    5.11    5.55    6.36    6.68    6.80    6.84    6.72    6.57
 2015 115    13    20     1   110.8    90.1    20.7    6.58   15.29    3.95    0.00    0.00    6.58    0.88   11.01    0.00    5.33     4.1     4.7    5.50    5.82    5.96    6.03    6.01    5.99    6.53    0.92    0.67    0.64    0.63    0.61    0.59    0.53    0.45   11.86    5.02    5.38    6.14    6.45    6.57    6.62    6.54    6.44
 2015 116    14    20     1   110.6    90.7    19.8    7.10   16.59    4.25    0.00    0.00    7.10    1.23   11.12    0.00    5.73     4.2     4.7    5.47    5.78    5.92    5.98    6.00    6.00    6.03    0.90    0.67    0.64    0.63    0.61    0.59    0.53    0.45   11.77    5.14    5.36    6.11    6.41    6.53    6.57    6.53    6.45
 2015 117    15    20     1   110.5    91.0    19.4    7.62   17.48    4.60    0.00    0.00    7.62    1.40   11.22    0.00    6.00     4.3     4.7    5.45    5.75    5.88    5.95    5.98    6.01    5.82    0.89    0.66    0.63    0.63    0.61    0.59    0.53    0.45   11.82    5.18    5.36    6.09    6.38    6.50    6.54    6.52    6.46
 2015 118    16    60     2   148.6    91.3    57.3    8.15   18.59    4.86    0.00    0.12    8.15    1.69   11.63    0.00    4.37     4.1     4.7    5.55    5.97    6.21    6.33    6.44    6.41   27.35    0.88    0.65    0.63    0.62    0.61    0.59    0.53    0.46   31.72    4.98    5.36    6.18    6.60    6.82    6.92    6.97    6.86
 2015 119    17    60     2   146.2    89.4    56.8    8.63   20.27    5.52    0.00    0.29    8.63    1.81   14.53    0.00    5.23     3.9     4.5    5.30    5.70    5.95    6.08    6.18    6.19   27.03    0.88    0.65    0.64    0.63    0.62    0.60    0.55    0.47   32.26    4.83    5.15    5.94    6.34    6.57    6.68    6.72    6.66
 2015 120    18    60     2   145.7    91.5    54.2    9.15   23.26    5.90    0.00    0.41    9.15    2.28   14.76    0.00    5.99     4.1     4.7    5.48    5.73    5.92    6.03    6.12    6.17   25.56    0.87    0.65    0.64    0.63    0.62    0.60    0.55    0.47   31.55    5.00    5.34    6.11    6.37    6.54    6.63    6.67    6.65
 2015 121    19    60     2   143.5    90.7    52.8    9.58   25.04    6.33    0.00    0.54    9.58    2.29   16.96    0.00    6.83     4.0     4.5    5.25    5.55    5.76    5.89    5.98    6.05   24.66    0.90    0.66    0.65    0.64    0.63    0.61    0.56    0.48   31.49    4.94    5.16    5.89    6.19    6.39    6.49    6.54    6.53
 2015 122    20    60     2   141.6    91.3    50.3   10.01   27.44    6.56    0.00    0.68   10.01    2.96   18.19    0.00    8.04     4.0     4.4    5.11    5.43    5.66    5.79    5.88    5.95   23.26    0.89    0.66    0.65    0.64    0.62    0.61    0.56    0.48   31.31    4.89    5.04    5.76    6.07    6.28    6.39    6.44    6.44
 2015 123    21    60     2   140.2    92.9    47.3   10.43   30.20    6.66    0.00    0.81   10.43    4.11   18.72    0.00    9.42     3.9     4.3    5.03    5.38    5.61    5.74    5.82    5.90   21.58    0.86    0.65    0.64    0.63    0.62    0.60    0.56    0.49   31.01    4.81    4.95    5.68    6.01    6.23    6.34    6.38    6.39
 2015 124    22    60     2   139.4    95.5    44.0   10.85   33.25    6.68    0.00    0.93   10.85    5.12   18.72    0.00   10.24     4.5     4.3    5.03    5.38    5.61    5.72    5.80    5.92   19.92    0.77    0.64    0.63    0.63    0.61    0.60    0.55    0.45   30.15    5.29    4.98    5.67    6.01    6.22    6.32    6.36    6.36
 2015 125    23    60     2   139.0    96.4    42.6   11.25   34.79    6.84    0.00    1.01   11.25    5.71   18.72    0.00    9.72     5.1     4.5    5.08    5.41    5.68    5.77    5.84    5.94   19.37    0.76    0.62    0.62    0.62    0.56    0.55    0.51    0.41   29.08    5.83    5.16    5.70    6.03    6.24    6.31    6.35    6.36
 2015 126    24    60     2   138.7    98.0    40.7   11.72   36.87    7.02    0.00    1.12   11.72    6.25   18.72    0.00    7.95     5.5     5.0    5.45    5.92    6.16    5.97    5.94    5.99   18.50    0.76    0.61    0.61    0.61    0.50    0.49    0.46    0.38   26.45    6.23    5.59    6.06    6.53    6.67    6.46    6.40    6.37
 2015 127    25    60     2   138.4    99.0    39.4   12.17   38.35    7.35    0.00    1.19   12.17    6.53   18.72    0.00    8.31     5.5     4.9    5.40    5.87    6.21    6.10    6.06    6.05   17.82    0.77    0.62    0.62    0.62    0.51    0.49    0.42    0.35   26.13    6.25    5.53    6.03    6.48    6.72    6.59    6.48    6.40
 2015 128    26    60     2   136.2    98.7    37.5   12.63   40.25    7.61    0.00    1.30   12.63    7.25   20.34    0.00    9.13     5.3     4.8    5.21    5.63    6.01    6.00    6.05    6.14   16.75    0.77    0.63    0.63    0.63    0.52    0.49    0.38    0.32   25.89    6.10    5.38    5.84    6.25    6.53    6.49    6.44    6.46
 2015 129    27    60     2   134.0    99.1    34.9   13.10   42.52    7.79    0.00    1.39   13.10    8.75   21.20    0.00   10.06     5.2     4.6    5.09    5.49    5.89    5.95    6.09    6.18   15.36    0.75    0.62    0.63    0.63    0.52    0.49    0.35    0.30   25.42    5.91    5.24    5.72    6.11    6.41    6.45    6.44    6.48
 2015 130    28    60     2   131.7    99.8    31.9   13.58   44.94    7.86    0.00    1.47   13.58   11.02   21.54    0.00   10.96     5.0     4.5    5.00    5.41    5.83    5.94    6.14    6.22   13.76    0.72    0.60    0.62    0.62    0.53    0.49    0.33    0.28   24.71    5.68    5.10    5.63    6.03    6.35    6.43    6.46    6.51
 2015 131    29    60     2   129.5   102.6    26.9   14.06   49.30    7.89    0.00    1.56   14.06   13.58   21.54    0.00    9.62     5.9     5.3    5.52    5.72    5.93    6.04    6.17    6.22   11.16    0.61    0.57    0.61    0.62    0.52    0.44    0.30    0.27   20.79    6.54    5.84    6.12    6.34    6.46    6.49    6.47    6.49
 2015 132    30    60     2   127.6   101.3    26.3   14.50   50.18    8.09    0.00    1.59   14.50   13.91   23.33    0.00    9.58     5.9     5.1    5.33    5.54    5.81    6.00    6.19    6.29   10.82    0.62    0.58    0.62    0.62    0.53    0.45    0.29    0.26   20.40    6.47    5.69    5.94    6.16    6.34    6.45    6.48    6.54
 2015 133    31    60     2   126.8   101.6    25.1   14.94   51.33    8.21    0.00    1.64   14.94   15.04   23.33    0.00    9.77     5.8     5.0    5.29    5.54    5.87    6.06    6.24    6.30   10.18    0.62    0.58    0.62    0.62    0.53    0.45    0.27    0.25   19.95    6.42    5.60    5.90    6.17    6.40    6.50    6.51    6.55
 2015 134    32    60     2   125.2   101.6    23.6   15.37   52.54    8.32    0.00    1.70   15.37   16.81   23.33    0.00    8.67     6.2     5.4    5.40    5.58    5.92    6.11    6.29    6.31    9.35    0.61    0.57    0.62    0.62    0.53    0.45    0.26    0.24   18.02    6.80    5.94    6.02    6.20    6.45    6.56    6.55    6.55
 2015 135    33    60     2   124.9   101.9    23.0   15.79   53.30    8.48    0.00    1.76   15.79   17.34   23.33    0.00    7.14     6.2     5.6    5.55    5.76    6.26    6.60    6.49    6.40    9.01    0.62    0.58    0.62    0.62    0.53    0.45    0.25    0.23   16.15    6.77    6.15    6.17    6.38    6.79    7.06    6.74    6.63
 2015 136    34    60     2   121.5    99.0    22.5   16.19   53.91    8.96    0.00    1.81   16.19   17.96   25.94    0.00    7.14     5.9     5.4    5.38    5.55    5.98    6.33    6.36    6.36    8.65    0.62    0.59    0.63    0.63    0.54    0.47    0.27    0.24   15.78    6.51    5.95    6.01    6.18    6.52    6.80    6.62    6.61
 2015 137    35    60     2   118.2    96.9    21.4   16.62   54.83    9.25    0.00    1.85   16.62   19.75   27.56    0.00    7.19     5.6     5.2    5.23    5.40    5.81    6.15    6.27    6.37    7.98    0.61    0.58    0.63    0.64    0.55    0.48    0.28    0.24   15.17    6.21    5.74    5.86    6.04    6.36    6.63    6.55    6.60
 2015 138    36    60     2   114.4    94.9    19.5   17.06   55.95    9.40    0.00    1.92   17.06   23.01   28.34    0.00    7.25     5.2     4.9    5.10    5.30    5.70    6.05    6.24    6.38    6.98    0.57    0.56    0.61    0.63    0.55    0.48    0.29    0.23   14.22    5.80    5.46    5.71    5.93    6.25    6.53    6.52    6.61
 2015 139    37   100     3   146.3    94.4    51.8   17.52   57.98    9.46    0.00    4.69   17.52   27.24   28.34    0.00    7.32     5.2     4.7    4.99    5.26    5.69    6.04    6.26    6.42   25.53    0.47    0.52    0.59    0.62    0.55    0.48    0.30    0.22   32.84    5.65    5.23    5.59    5.89    6.24    6.52    6.56    6.64
 2015 140    38   100     3   143.8    94.7    49.2   17.98   59.74    9.51    0.00    6.68   17.98   29.17   28.34    0.00    7.91     5.1     4.5    4.89    5.23    5.68    6.03    6.28    6.45   24.03    0.49    0.50    0.57    0.61    0.55    0.49    0.31    0.22   31.94    5.55    5.01    5.46    5.84    6.23    6.52    6.59    6.67
 2015 141    39   100     3   139.3    94.5    44.8   18.45   62.06    9.55    0.00    8.30   18.45   32.26   28.92    0.00    8.69     4.8     4.2    4.75    5.16    5.63    5.99    6.26    6.47   21.57    0.51    0.50    0.55    0.60    0.55    0.49    0.32    0.21   30.25    5.30    4.74    5.29    5.77    6.19    6.48    6.58    6.68
 2015 142    40   100     3   135.2    95.6    39.6   18.94   65.09    9.56    0.00    9.50   18.94   35.74   28.92    0.00    7.61     5.1     4.8    5.20    5.29    5.68    6.00    6.28    6.47   18.74    0.52    0.46    0.48    0.59    0.55    0.49    0.33    0.21   26.34    5.66    5.30    5.68    5.88    6.23    6.49    6.60    6.68
 2015 143    41   100     3   131.9    94.9    37.0   19.41   66.56    9.59    0.00   10.60   19.41   36.88   30.42    0.00    8.02     5.0     4.7    5.03    5.17    5.61    5.96    6.23    6.49   17.20    0.53    0.48    0.49    0.58    0.55    0.49    0.34    0.20   25.22    5.53    5.15    5.52    5.75    6.15    6.45    6.57    6.69
 2015 144    42   100     3   127.4    94.2    33.3   19.89   68.47    9.70    0.00   11.50   19.89   39.97   31.25    0.00    8.42     4.7     4.5    4.88    5.09    5.58    5.94    6.21    6.50   15.09    0.52    0.50    0.50    0.57    0.54    0.49    0.34    0.20   23.51    5.23    4.96    5.38    5.66    6.12    6.43    6.56    6.70
 2015 145    43   100     3   122.6    93.7    28.9   20.38   70.63    9.74    0.00   12.34   20.38   44.17   31.50    0.00    8.84     4.4     4.2    4.75    5.05    5.58    5.94    6.25    6.52   12.67    0.51    0.50    0.50    0.56    0.54    0.49    0.32    0.20   21.51    4.88    4.75    5.25    5.61    6.12    6.43    6.57    6.72
 2015 146    44   100     3   118.4    95.4    23.0   20.88   74.65    9.74    0.00   13.09   20.88   48.12   31.50    0.00    7.38     4.8     4.7    5.12    5.54    5.96    6.10    6.32    6.52    9.49    0.46    0.51    0.51    0.55    0.48    0.44    0.30    0.20   16.86    5.28    5.19    5.63    6.09    6.44    6.54    6.61    6.72
 2015 147    45   100     3   115.4    93.7    21.7   21.37   75.58    9.92    0.00   13.63   21.37   49.03   33.43    0.00    7.49     4.7     4.5    4.92    5.31    5.78    6.01    6.29    6.53    8.68    0.48    0.52    0.52    0.56    0.49    0.44    0.28    0.19   16.18    5.15    5.01    5.44    5.87    6.27    6.45    6.57    6.72
 2015 148    46   100     3   111.7    92.1    19.6   21.89   76.83   10.03    0.00   14.05   21.89   51.64   34.48    0.00    7.57     4.4     4.3    4.75    5.15    5.68    5.98    6.31    6.54    7.50    0.50    0.51    0.52    0.56    0.49    0.44    0.26    0.19   15.07    4.90    4.77    5.27    5.72    6.17    6.42    6.57    6.73
 2015 149    47   100     3   108.5    91.0    17.5   22.42   78.19   10.08    0.00   14.36   22.42   54.51   34.96    0.00    7.66     4.1     4.1    4.63    5.07    5.63    5.97    6.33    6.56    6.31    0.51    0.51    0.52    0.56    0.49    0.44    0.25    0.19   13.97    4.65    4.58    5.15    5.63    6.13    6.41    6.58    6.75
 2015 150    48   100     3   106.1    91.5    14.6   22.93   80.48   10.11    0.00   14.62   22.93   57.08   35.02    0.00    8.28     4.0     3.9    4.55    5.02    5.62    6.03    6.37    6.59    4.78    0.46    0.51    0.51    0.56    0.49    0.40    0.24    0.19   13.06    4.44    4.44    5.06    5.58    6.12    6.43    6.60    6.77
 2015 151    49   100     3   103.7    91.6    12.2   23.44   82.50   10.12    0.00   14.82   23.44   59.75   35.02    0.00    8.63     3.8     3.8    4.50    4.98    5.63    6.09    6.38    6.59    3.61    0.43    0.46    0.46    0.55    0.49    0.37    0.23    0.19   12.23    4.22    4.27    4.96    5.53    6.12    6.46    6.61    6.77
 2015 152    50   100     3   102.4    92.0    10.4   23.95   84.29   10.12    0.00   14.97   23.95   61.42   35.02    0.00    7.48     4.8     4.0    4.54    4.98    5.69    6.12    6.39    6.59    2.80    0.39    0.42    0.42    0.54    0.44    0.34    0.22    0.18   10.28    5.16    4.47    4.95    5.52    6.13    6.46    6.61    6.77
 2015 153    51   100     3   101.4    91.6     9.8   24.46   85.13   10.12    0.00   15.07   24.46   62.49   35.31    0.00    7.36     4.6     3.9    4.46    4.99    5.73    6.18    6.46    6.67    2.65    0.42    0.43    0.38    0.48    0.40    0.31    0.21    0.18   10.00    5.06    4.30    4.84    5.47    6.13    6.49    6.68    6.85
 2015 154    52   100     3    99.6    90.5     9.0   24.98   86.06   10.12    0.00   15.17   24.98   64.73   35.37    0.00    7.14     4.4     3.6    4.38    5.02    5.78    6.23    6.50    6.69    2.32    0.44    0.44    0.35    0.43    0.36    0.29    0.21    0.18    9.46    4.82    4.08    4.73    5.45    6.14    6.52    6.70    6.88
 2015 155    53   100     3    97.5    89.4     8.1   25.51   87.07   10.12    0.00   15.26   25.51   67.26   35.37    0.00    6.87     4.1     3.5    4.32    5.04    5.82    6.25    6.51    6.70    1.93    0.45    0.40    0.32    0.39    0.33    0.27    0.20    0.18    8.80    4.54    3.95    4.65    5.43    6.16    6.53    6.71    6.88
 2015 156    54   100     3    95.4    88.5     6.9   26.04   88.35   10.12    0.00   15.34   26.04   69.77   35.37    0.00    5.28     4.4     4.0    4.43    5.10    5.86    6.27    6.51    6.70    1.43    0.41    0.37    0.30    0.35    0.31    0.26    0.20    0.18    6.71    4.82    4.41    4.73    5.46    6.17    6.53    6.71    6.88
 2015 157    55   100     3    94.6    87.8     6.7   26.54   88.88   10.12    0.00   15.41   26.54   70.48   35.92    0.00    5.21     4.2     3.9    4.27    5.04    5.88    6.33    6.58    6.77    1.35    0.44    0.40    0.32    0.32    0.29    0.24    0.20    0.18    6.56    4.68    4.30    4.59    5.37    6.16    6.57    6.77    6.95
 2015 158    56   100     3    93.2    86.7     6.4   27.05   89.46   10.12    0.00   15.49   27.05   72.02   36.22    0.00    5.07     4.0     3.7    4.15    5.02    5.89    6.35    6.60    6.79    1.19    0.45    0.41    0.33    0.30    0.27    0.23    0.19    0.18    6.26    4.45    4.16    4.48    5.32    6.16    6.59    6.80    6.97
 2015 159    57   100     3    91.4    85.4     6.0   27.55   90.11   10.12    0.00   15.56   27.55   74.18   36.22    0.00    4.83     3.7     3.6    4.08    5.03    5.93    6.39    6.60    6.79    0.99    0.47    0.42    0.31    0.28    0.26    0.23    0.19    0.18    5.82    4.16    3.98    4.39    5.31    6.19    6.61    6.79    6.97
 2015 160    58   100     3    89.8    84.4     5.4   28.06   91.01   10.12    0.00   15.63   28.06   76.27   36.22    0.00    3.32     3.6     3.8    4.47    5.25    6.03    6.43    6.60    6.79    0.74    0.43    0.39    0.29    0.27    0.24    0.22    0.19    0.18    4.06    4.03    4.23    4.76    5.51    6.27    6.64    6.79    6.97
 2015 161    59   100     3    88.5    83.1     5.4   28.55   91.33   10.12    0.00   15.70   28.55   76.64   37.55    0.00    3.31     3.5     3.7    4.31    5.05    5.88    6.39    6.65    6.85    0.69    0.45    0.41    0.31    0.29    0.26    0.21    0.19    0.18    4.01    3.90    4.10    4.62    5.33    6.14    6.60    6.84    7.03
 2015 162    60   100     3    87.2    81.7     5.5   29.06   91.70   10.12    0.00   15.75   29.06   77.53   38.45    0.00    3.22     3.3     3.5    4.18    4.93    5.81    6.37    6.66    6.87    0.63    0.47    0.43    0.33    0.30    0.27    0.21    0.19    0.18    3.85    3.75    3.97    4.51    5.23    6.08    6.58    6.84    7.05
 2015 163    61   100     3    86.2    80.8     5.4   29.57   92.15   10.12    0.00   15.82   29.57   78.98   38.45    0.00    2.22     2.9     3.5    4.30    5.22    6.12    6.49    6.70    6.86    0.53    0.48    0.44    0.34    0.31    0.26    0.20    0.19    0.18    2.75    3.38    3.97    4.64    5.53    6.37    6.69    6.88    7.04
 2015 164    62   100     3    84.3    78.8     5.5   30.05   92.41   10.12    0.00   15.88   30.05   79.22   40.55    0.00    2.22     2.8     3.4    4.13    4.98    5.85    6.33    6.65    6.87    0.50    0.50    0.46    0.36    0.33    0.27    0.22    0.18    0.18    2.72    3.29    3.84    4.49    5.31    6.13    6.55    6.83    7.05
 2015 165    63   100     3    82.8    77.1     5.6   30.56   92.73   10.25    0.00   15.94   30.56   79.88   41.69    0.00    2.19     2.6     3.2    3.99    4.81    5.70    6.25    6.64    6.88    0.47    0.52    0.47    0.38    0.35    0.29    0.23    0.18    0.18    2.67    3.16    3.70    4.36    5.15    5.99    6.48    6.82    7.06
 2015 166    64   100     3    81.6    76.0     5.6   31.07   93.15   10.31    0.00   16.02   31.07   80.97   42.13    0.00    2.14     2.5     3.1    3.88    4.71    5.63    6.24    6.65    6.90    0.43    0.51    0.48    0.39    0.36    0.30    0.23    0.18    0.18    2.58    3.00    3.57    4.27    5.07    5.93    6.46    6.83    7.08
 2015 167    65   100     3    81.0    75.6     5.5   31.59   93.71   10.33    0.00   16.10   31.59   81.99   42.13    0.00    1.90     2.6     3.0    3.84    4.68    5.64    6.27    6.64    6.88    0.39    0.46    0.48    0.40    0.37    0.31    0.22    0.18    0.18    2.29    3.01    3.53    4.24    5.05    5.95    6.48    6.82    7.06
 2015 168    66   100     3    80.2    74.8     5.5   32.10   94.10   10.38    0.00   16.18   32.10   82.59   42.67    0.00    1.92     2.5     2.9    3.72    4.59    5.56    6.26    6.68    6.94    0.36    0.48    0.49    0.40    0.38    0.32    0.21    0.18    0.18    2.29    2.93    3.38    4.13    4.96    5.88    6.47    6.86    7.12
 2015 169    67   100     3    80.1    74.6     5.4   32.62   94.58   10.40    0.00   16.25   32.62   82.96   42.91    0.00    1.96     2.4     2.8    3.68    4.56    5.56    6.27    6.70    6.96    0.34    0.49    0.49    0.41    0.38    0.30    0.21    0.18    0.18    2.30    2.89    3.33    4.09    4.94    5.86    6.48    6.88    7.14
 2015 170    68   100     3    80.3    75.1     5.2   33.14   95.30   10.41    0.00   16.34   33.14   83.15   42.91    0.00    2.06     2.4     2.9    3.75    4.62    5.61    6.27    6.68    6.94    0.31    0.51    0.45    0.37    0.35    0.28    0.20    0.18    0.18    2.37    2.88    3.35    4.13    4.97    5.89    6.47    6.86    7.12
 2015 171    69   100     3    80.7    75.8     4.9   33.66   95.98   10.42    0.00   16.42   33.66   83.20   42.91    0.00    2.19     2.4     3.0    3.81    4.67    5.63    6.27    6.67    6.92    0.27    0.51    0.41    0.34    0.33    0.26    0.20    0.18    0.18    2.47    2.92    3.40    4.16    5.00    5.89    6.46    6.85    7.10
 2015 172    70   100     3    81.1    76.5     4.6   34.16   96.70   10.42    0.00   16.50   34.16   83.20   42.91    0.00    2.13     2.6     3.1    3.89    4.72    5.65    6.26    6.66    6.91    0.24    0.47    0.38    0.32    0.30    0.25    0.19    0.18    0.18    2.38    3.09    3.49    4.21    5.02    5.90    6.46    6.83    7.09

*DSSAT Cropping System Model Ver. 4.7.5.007 -  MAR 01, 2026 21:01:02
!                                                                                                                              NO3 (ppm) at soil dep. (cm):                                            NH4 (ppm) at soil dep. (cm):                                            Total Inorganic N @dep(ppm):
!                                                                                                                              0-10   10-20   20-30   30-40   40-50   50-60   60-70   70-80   80-90    0-10   10-20   20-30   30-40   40-50   50-60   60-70   70-80   80-90    0-10   10-20   20-30   30-40   40-50   50-60   60-70   70-80   80-90
@YEAR DOY   DAS  NAPC  NI#M    NIAD    NITD    NHTD    NMNC    NITC    NDNC    NIMC    AMLC   NNMNC    NUCM    NLCC    TDFC    NI1D    NI2D    NI3D    NI4D    NI5D    NI6D    NI7D    NI8D    NI9D    NH1D    NH2D    NH3D    NH4D    NH5D    NH6D    NH7D    NH8D    NH9D    NT1D    NT2D    NT3D    NT4D    NT5D    NT6D    NT7D    NT8D    NT9D    
 2015 125     0     0     0   100.1    90.3     9.8    0.00    0.00    0.00    0.00    0.00    0.00    0.00    0.00    0.00    5.50     5.5     5.5    5.50    5.50    5.50    5.50    5.50    5.50    0.60    0.60    0.60    0.60    0.60    0.60    0.60    0.60    0.60    6.10    6.10    6.10    6.10    6.10    6.10    6.10    6.10    6.10
 2015 126     1    20     1   114.7    92.0    22.7    0.53    1.77    0.00    0.00    0.00    0.53    0.00    0.00    0.00    3.47     5.0     5.9    6.28    6.28    6.28    5.87    5.68    5.64    8.54    0.53    0.53    0.52    0.52    0.52    0.52    0.52    0.52   12.01    5.56    6.42    6.80    6.80    6.80    6.39    6.20    6.16
 2015 127     2    20     1   118.5    92.6    25.9    1.00    2.35    0.00    0.00    0.00    1.00    0.00    0.03    0.00    3.64     5.0     5.9    6.28    6.27    6.26    5.98    5.76    5.73   10.36    0.54    0.54    0.53    0.54    0.54    0.53    0.52    0.47   13.99    5.50    6.39    6.81    6.80    6.80    6.50    6.29    6.19
 2015 128     3    20     1   118.6    91.6    27.0    1.48    3.44    0.00    0.00    0.00    1.48    0.00    2.07    0.00    4.30     4.8     5.6    6.06    6.08    6.08    5.88    5.73    5.72   10.83    0.63    0.55    0.55    0.55    0.55    0.53    0.52    0.47   15.12    5.42    6.16    6.61    6.62    6.63    6.41    6.25    6.18
 2015 129     4    20     1   118.5    92.1    26.5    1.98    5.02    0.00    0.00    0.00    1.98    0.00    3.20    0.00    5.17     4.7     5.5    5.93    5.95    5.95    5.81    5.71    5.78   10.49    0.69    0.56    0.55    0.55    0.55    0.53    0.52    0.42   15.66    5.42    6.03    6.48    6.50    6.51    6.34    6.23    6.19
 2015 130     5    20     1   119.2    93.9    25.4    2.46    6.82    0.00    0.00    0.00    2.46    0.00    3.20    0.00    4.72     4.7     5.6    6.30    6.40    6.23    5.92    5.82    5.79    9.92    0.71    0.57    0.55    0.55    0.55    0.53    0.46    0.38   14.64    5.36    6.21    6.85    6.95    6.79    6.45    6.29    6.17
 2015 131     6    20     1   117.8    92.8    24.9    2.92    7.78    0.44    0.00    0.00    2.92    0.00    4.74    0.00    3.75     4.1     5.2    5.99    6.25    6.31    6.32    6.47    6.59    9.66    0.74    0.59    0.57    0.56    0.56    0.53    0.42    0.35   13.40    4.82    5.74    6.56    6.82    6.87    6.85    6.89    6.94
 2015 132     7    20     1   114.5    89.9    24.7    3.33    8.44    0.93    0.00    0.00    3.33    0.05    7.87    0.00    3.91     3.9     4.9    5.73    6.00    6.08    6.10    6.26    6.37    9.40    0.75    0.61    0.58    0.58    0.57    0.54    0.43    0.37   13.31    4.69    5.50    6.31    6.58    6.65    6.64    6.70    6.74
 2015 133     8    20     1   114.3    90.1    24.1    3.77    9.37    1.22    0.00    0.00    3.77    0.13    8.19    0.00    4.35     3.9     4.8    5.69    5.96    6.04    6.06    6.24    6.34    9.03    0.76    0.62    0.59    0.58    0.58    0.55    0.45    0.38   13.38    4.70    5.45    6.28    6.54    6.62    6.61    6.68    6.73
 2015 134     9    20     1   112.6    89.1    23.5    4.19   10.39    1.46    0.00    0.00    4.19    0.24    9.94    0.00    4.89     3.9     4.7    5.54    5.80    5.89    5.91    6.08    6.19    8.62    0.76    0.62    0.59    0.59    0.58    0.55    0.46    0.39   13.51    4.66    5.33    6.13    6.39    6.47    6.46    6.54    6.58
 2015 135    10    20     1   112.6    89.9    22.7    4.61   11.55    1.60    0.00    0.00    4.61    0.37   10.10    0.00    4.23     4.0     4.9    5.79    6.16    6.13    5.96    6.07    6.16    8.15    0.76    0.62    0.60    0.59    0.59    0.56    0.46    0.40   12.38    4.72    5.48    6.38    6.75    6.71    6.52    6.54    6.56
 2015 136    11    20     1   110.2    87.7    22.5    5.01   12.13    1.99    0.00    0.00    5.01    0.43   12.41    0.00    4.47     3.9     4.6    5.52    5.89    5.93    5.85    5.95    6.05    7.97    0.77    0.63    0.61    0.60    0.59    0.56    0.47    0.41   12.44    4.62    5.27    6.13    6.49    6.52    6.40    6.42    6.45
 2015 137    12    20     1   108.8    86.8    22.0    5.43   12.98    2.24    0.00    0.00    5.43    0.59   13.82    0.00    4.81     3.8     4.5    5.36    5.72    5.81    5.78    5.89    5.99    7.66    0.77    0.63    0.61    0.61    0.59    0.56    0.47    0.41   12.47    4.57    5.14    5.97    6.33    6.40    6.34    6.36    6.40
 2015 138    13    20     1   108.3    87.0    21.3    5.86   14.07    2.36    0.00    0.00    5.86    0.79   14.52    0.00    5.36     3.8     4.4    5.27    5.62    5.74    5.76    5.86    5.95    7.25    0.76    0.63    0.61    0.61    0.59    0.56    0.47    0.42   12.61    4.55    5.07    5.88    6.23    6.33    6.31    6.33    6.37
 2015 139    14    60     2   146.7    88.3    58.5    6.31   15.53    2.41    0.00    0.11    6.31    1.04   14.52    0.00    5.43     4.2     4.5    5.30    5.62    5.74    5.81    5.87    5.96   28.55    0.75    0.62    0.61    0.60    0.59    0.50    0.43    0.38   33.98    4.95    5.15    5.91    6.22    6.33    6.32    6.30    6.34
 2015 140    15    60     2   147.8    90.0    57.8    6.76   17.58    2.59    0.00    0.22    6.76    1.20   14.52    0.00    6.25     4.2     4.6    5.34    5.63    5.76    5.84    5.89    5.96   28.30    0.76    0.62    0.60    0.60    0.58    0.46    0.39    0.36   34.55    4.97    5.19    5.94    6.22    6.34    6.30    6.28    6.32
 2015 141    16    60     2   148.0    92.4    55.6    7.21   20.27    2.75    0.00    0.34    7.21    1.47   14.57    0.00    7.42     4.1     4.5    5.26    5.59    5.80    5.93    6.03    6.12   27.21    0.78    0.61    0.60    0.59    0.52    0.42    0.36    0.33   34.63    4.92    5.10    5.86    6.18    6.32    6.35    6.40    6.45
 2015 142    17    60     2   147.9    95.6    52.3    7.68   23.76    2.84    0.00    0.46    7.68    1.94   14.57    0.00    7.03     4.5     4.9    5.71    6.20    6.03    6.01    6.04    6.12   25.54    0.78    0.60    0.59    0.53    0.47    0.38    0.34    0.31   32.57    5.31    5.46    6.30    6.72    6.50    6.39    6.38    6.42
 2015 143    18    60     2   146.4    95.6    50.8    8.13   25.56    3.15    0.00    0.59    8.13    2.06   15.96    0.00    7.76     4.4     4.7    5.46    5.96    5.93    6.03    6.12    6.20   24.69    0.80    0.62    0.60    0.54    0.47    0.35    0.31    0.29   32.46    5.24    5.28    6.06    6.50    6.40    6.38    6.43    6.49
 2015 144    19    60     2   145.3    97.0    48.4    8.59   28.09    3.34    0.00    0.71    8.59    2.44   16.79    0.00    8.93     4.4     4.6    5.32    5.82    5.88    6.06    6.16    6.24   23.38    0.80    0.62    0.60    0.55    0.47    0.33    0.29    0.27   32.31    5.19    5.17    5.92    6.36    6.35    6.39    6.45    6.51
 2015 145    20    60     2   144.7    99.4    45.2    9.06   31.21    3.44    0.00    0.84    9.06    3.16   16.99    0.00   10.43     4.4     4.5    5.24    5.73    5.93    6.11    6.20    6.28   21.72    0.78    0.61    0.60    0.55    0.43    0.30    0.28    0.26   32.15    5.14    5.09    5.84    6.28    6.36    6.41    6.48    6.54
 2015 146    21    60     2   144.3   102.5    41.8    9.54   34.65    3.47    0.00    0.96    9.54    3.89   16.99    0.00   12.19     4.3     4.5    5.22    5.70    6.00    6.15    6.19    6.27   19.89    0.76    0.60    0.60    0.54    0.39    0.29    0.26    0.25   32.07    5.10    5.06    5.81    6.25    6.39    6.43    6.46    6.51
 2015 147    22    60     2   144.1   108.8    35.2   10.03   41.22    3.47    0.00    1.08   10.03    4.44   16.99    0.00   13.55     5.8     4.9    5.31    5.79    6.01    6.14    6.18    6.25   16.50    0.66    0.53    0.59    0.48    0.36    0.27    0.25    0.24   30.05    6.46    5.46    5.90    6.28    6.37    6.41    6.43    6.49
 2015 148    23    60     2   144.0   110.1    33.9   10.51   42.82    3.48    0.00    1.20   10.51    4.84   16.99    0.00   13.95     5.8     4.9    5.26    5.79    6.10    6.24    6.33    6.37   15.85    0.67    0.53    0.58    0.43    0.33    0.25    0.24    0.23   29.80    6.48    5.39    5.84    6.22    6.42    6.50    6.57    6.60
 2015 149    24    60     2   143.5   111.8    31.8   11.01   45.02    3.48    0.00    1.31   11.01    5.74   16.99    0.00   13.22     6.7     5.3    5.45    5.87    6.11    6.24    6.32    6.35   14.82    0.67    0.52    0.51    0.39    0.30    0.24    0.23    0.22   28.04    7.34    5.83    5.96    6.27    6.41    6.48    6.55    6.57
 2015 150    25    60     2   143.2   112.6    30.6   11.48   46.40    3.48    0.00    1.42   11.48    6.18   17.23    0.00   13.59     6.6     5.2    5.39    5.86    6.17    6.32    6.41    6.47   14.24    0.68    0.53    0.51    0.36    0.28    0.23    0.22    0.21   27.83    7.25    5.75    5.89    6.22    6.46    6.55    6.62    6.68
 2015 151    26    60     2   142.4   113.6    28.7   11.97   48.25    3.48    0.00    1.54   11.97    7.32   17.30    0.00   14.31     6.4     5.1    5.34    5.89    6.21    6.35    6.44    6.50   13.26    0.67    0.52    0.50    0.33    0.27    0.22    0.21    0.21   27.57    7.09    5.65    5.85    6.22    6.48    6.58    6.65    6.71
 2015 152    27    60     2   141.4   115.0    26.5   12.45   50.46    3.56    0.00    1.66   12.45    8.53   17.30    0.00   14.33     7.0     5.2    5.45    5.90    6.21    6.34    6.42    6.48   12.11    0.65    0.52    0.45    0.31    0.25    0.22    0.21    0.20   26.43    7.67    5.70    5.90    6.20    6.46    6.56    6.63    6.68
 2015 153    28    60     2   140.8   115.4    25.4   12.93   51.77    3.88    0.00    1.76   12.93    9.27   17.30    0.00   14.45     6.9     5.1    5.46    5.96    6.29    6.43    6.47    6.46   11.60    0.65    0.50    0.41    0.29    0.24    0.21    0.20    0.20   26.06    7.54    5.64    5.87    6.25    6.53    6.64    6.68    6.66
 2015 154    29    60     2   139.5   115.8    23.7   13.43   53.48    4.03    0.00    1.86   13.43   10.79   17.30    0.00   14.93     6.7     5.1    5.49    5.99    6.33    6.44    6.46    6.44   10.73    0.63    0.50    0.37    0.27    0.23    0.20    0.20    0.20   25.66    7.31    5.55    5.86    6.26    6.57    6.64    6.65    6.64
 2015 155    30    60     2   138.0   116.5    21.5   13.94   55.50    4.09    0.00    1.95   13.94   12.58   17.30    0.00   15.59     6.5     5.1    5.49    5.99    6.33    6.43    6.45    6.43    9.66    0.61    0.45    0.34    0.25    0.22    0.20    0.20    0.19   25.25    7.07    5.51    5.83    6.25    6.56    6.63    6.64    6.63
 2015 156    31    60     2   136.7   118.8    17.9   14.44   58.98    4.09    0.00    2.04   14.44   14.29   17.30    0.00   14.85     8.0     5.5    5.58    5.99    6.33    6.42    6.43    6.42    7.78    0.53    0.41    0.31    0.24    0.21    0.20    0.19    0.19   22.63    8.48    5.87    5.89    6.23    6.54    6.61    6.62    6.61
 2015 157    32    60     2   136.2   119.0    17.2   14.92   59.90    4.09    0.00    2.13   14.92   15.20   17.30    0.00   14.89     7.8     5.4    5.57    6.07    6.44    6.55    6.42    6.41    7.44    0.54    0.42    0.29    0.23    0.21    0.19    0.19    0.19   22.32    8.32    5.81    5.86    6.30    6.65    6.74    6.61    6.59
 2015 158    33    60     2   134.4   118.4    16.0   15.41   61.06    4.09    0.00    2.21   15.41   17.42   17.30    0.00   15.02     7.5     5.2    5.54    6.07    6.47    6.60    6.42    6.39    6.78    0.53    0.42    0.27    0.22    0.20    0.19    0.19    0.19   21.80    7.99    5.66    5.81    6.29    6.68    6.79    6.61    6.58
 2015 159    34   100     3   163.6   118.1    45.4   15.89   62.39    4.09    0.00    9.63   15.89   19.66   17.30    0.00   15.35     7.1     5.2    5.52    6.06    6.47    6.59    6.41    6.38   23.58    0.51    0.39    0.26    0.22    0.20    0.19    0.19    0.19   38.92    7.66    5.56    5.78    6.27    6.67    6.78    6.60    6.57
 2015 160    35   100     3   159.2   123.9    35.3   16.38   69.33    4.09    0.00   13.35   16.38   21.98   17.30    0.00   15.47     8.6     6.4    5.79    6.12    6.47    6.59    6.40    6.38   17.95    0.46    0.36    0.25    0.21    0.20    0.19    0.19    0.18   33.42    9.01    6.80    6.03    6.33    6.66    6.77    6.59    6.56
 2015 161    36   100     3   157.0   124.5    32.4   16.86   70.75    4.09    0.00   15.16   16.86   23.12   17.30    0.00   15.79     8.3     6.3    5.68    6.07    6.53    6.68    6.77    6.41   16.17    0.57    0.38    0.26    0.21    0.19    0.19    0.18    0.18   31.96    8.91    6.68    5.94    6.27    6.72    6.87    6.95    6.59
 2015 162    37   100     3   153.9   124.8    29.1   17.35   72.59    4.09    0.00   16.49   17.35   25.50   17.30    0.00   16.19     8.1     6.1    5.59    6.04    6.53    6.71    6.79    6.70   14.19    0.60    0.40    0.27    0.20    0.19    0.19    0.18    0.18   30.38    8.68    6.52    5.86    6.24    6.72    6.89    6.98    6.88
 2015 163    38   100     3   150.4   125.1    25.3   17.84   74.69    4.09    0.00   17.75   17.84   28.21   17.30    0.00   13.53     9.1     7.1    6.10    6.16    6.58    6.70    6.79    6.69   12.06    0.60    0.42    0.26    0.20    0.19    0.18    0.18    0.18   25.59    9.74    7.50    6.36    6.36    6.77    6.89    6.97    6.88
 2015 164    39   100     3   147.9   124.4    23.5   18.31   75.72    4.09    0.00   18.68   18.31   29.47   18.18    0.00   13.61     8.8     6.9    6.01    6.04    6.53    6.73    6.84    6.89   10.95    0.61    0.44    0.28    0.21    0.19    0.18    0.18    0.18   24.56    9.45    7.33    6.29    6.26    6.71    6.92    7.02    7.07
 2015 165    40   100     3   143.4   122.6    20.8   18.81   77.08    4.30    0.00   19.48   18.81   32.84   18.73    0.00   13.65     8.3     6.6    5.87    5.96    6.52    6.75    6.86    6.92    9.41    0.59    0.46    0.29    0.23    0.19    0.18    0.18    0.18   23.06    8.93    7.03    6.17    6.19    6.71    6.93    7.05    7.10
 2015 166    41   100     3   140.0   121.8    18.2   19.30   78.61    4.38    0.00   20.14   19.30   35.95   18.78    0.00   13.93     7.9     6.3    5.77    5.95    6.54    6.78    6.89    6.95    7.94    0.57    0.46    0.31    0.22    0.19    0.18    0.18    0.18   21.88    8.49    6.78    6.07    6.17    6.73    6.96    7.07    7.13
 2015 167    42   100     3   136.8   122.3    14.6   19.81   81.30    4.38    0.00   20.64   19.81   39.17   18.78    0.00   10.31     8.4     7.5    6.71    6.70    6.80    6.85    6.91    6.94    5.96    0.48    0.47    0.32    0.21    0.18    0.18    0.18    0.18   16.26    8.93    7.92    7.03    6.91    6.98    7.04    7.09    7.12
 2015 168    43   100     3   133.9   120.0    13.9   20.30   81.89    4.56    0.00   20.94   20.30   40.13   20.73    0.00   10.26     8.1     7.1    6.53    6.50    6.64    6.79    6.92    6.99    5.49    0.50    0.49    0.34    0.24    0.20    0.20    0.18    0.18   15.75    8.62    7.62    6.86    6.74    6.84    6.99    7.10    7.17
 2015 169    44   100     3   130.2   117.4    12.8   20.81   82.70    4.66    0.00   21.17   20.81   42.85   21.91    0.00   10.08     7.6     6.8    6.34    6.36    6.55    6.77    6.93    7.01    4.78    0.52    0.50    0.35    0.25    0.22    0.20    0.18    0.18   14.85    8.16    7.28    6.69    6.61    6.77    6.97    7.11    7.19
 2015 170    45   100     3   126.7   115.3    11.5   21.32   83.59    4.71    0.00   21.36   21.32   46.59   21.91    0.00    7.30     7.3     7.2    6.87    6.77    6.84    6.90    6.98    7.01    3.98    0.51    0.50    0.37    0.27    0.24    0.19    0.18    0.18   11.27    7.84    7.72    7.23    7.04    7.08    7.09    7.16    7.19
 2015 171    46   100     3   123.9   112.8    11.2   21.81   84.07    4.88    0.00   21.52   21.81   47.42   24.06    0.00    7.27     7.0     6.9    6.64    6.58    6.68    6.80    6.95    7.04    3.69    0.52    0.52    0.38    0.29    0.25    0.21    0.18    0.18   10.96    7.53    7.39    7.03    6.87    6.93    7.01    7.13    7.22
 2015 172    47   100     3   120.4   110.0    10.4   22.30   84.66    5.16    0.00   21.65   22.30   49.78   25.29    0.00    7.08     6.6     6.5    6.43    6.40    6.56    6.75    6.95    7.06    3.23    0.52    0.51    0.40    0.31    0.27    0.22    0.18    0.18   10.31    7.08    7.03    6.83    6.71    6.83    6.98    7.13    7.24
 2015 173    48   100     3   117.5   107.8     9.6   22.79   85.32    5.29    0.00   21.77   22.79   52.36   25.87    0.00    6.95     6.2     6.2    6.26    6.28    6.49    6.74    6.97    7.08    2.76    0.51    0.51    0.41    0.32    0.28    0.22    0.18    0.18    9.71    6.69    6.72    6.67    6.60    6.77    6.96    7.15    7.26
 2015 174    49   100     3   115.3   106.5     8.8   23.26   86.06    5.34    0.00   21.87   23.26   54.82   25.87    0.00    4.85     5.8     6.5    6.82    6.78    6.67    6.83    6.99    7.08    2.33    0.46    0.51    0.42    0.33    0.29    0.21    0.18    0.18    7.18    6.28    7.03    7.23    7.11    6.97    7.05    7.17    7.26
 2015 175    50   100     3   112.7   104.0     8.8   23.70   86.40    5.65    0.00   21.97   23.70   55.43   27.88    0.00    4.81     5.6     6.2    6.55    6.54    6.53    6.75    6.97    7.11    2.18    0.48    0.52    0.43    0.35    0.31    0.23    0.18    0.18    6.99    6.04    6.71    6.98    6.89    6.84    6.98    7.16    7.29
 2015 176    51   100     3   110.0   101.6     8.5   24.15   86.81    5.84    0.00   22.05   24.15   57.13   29.08    0.00    4.68     5.2     5.9    6.32    6.37    6.45    6.71    6.97    7.12    1.94    0.50    0.52    0.44    0.36    0.32    0.24    0.18    0.18    6.62    5.72    6.38    6.76    6.73    6.77    6.95    7.15    7.30
 2015 177    52   100     3   107.9   100.0     8.0   24.61   87.32    5.92    0.00   22.14   24.61   59.50   29.08    0.00    3.84     5.0     6.0    6.33    6.34    6.50    6.77    6.97    7.11    1.64    0.51    0.51    0.45    0.37    0.33    0.23    0.18    0.18    5.48    5.47    6.48    6.78    6.72    6.83    7.00    7.15    7.29
 2015 178    53   100     3   106.0    98.1     7.9   25.06   87.66    6.11    0.00   22.21   25.06   60.21   30.50    0.00    3.80     4.7     5.6    6.10    6.20    6.42    6.71    6.98    7.15    1.55    0.53    0.52    0.46    0.38    0.34    0.25    0.18    0.18    5.34    5.28    6.17    6.56    6.58    6.76    6.96    7.17    7.33
 2015 179    54   100     3   103.8    96.2     7.6   25.51   88.10    6.24    0.00   22.29   25.51   61.90   31.27    0.00    3.71     4.5     5.3    5.89    6.09    6.38    6.71    6.99    7.16    1.38    0.51    0.51    0.47    0.39    0.34    0.24    0.18    0.18    5.09    4.98    5.85    6.36    6.48    6.72    6.95    7.17    7.34
 2015 180    55   100     3   102.0    94.7     7.3   25.96   88.57    6.29    0.00   22.36   25.96   63.84   31.49    0.00    3.61     4.2     5.1    5.73    6.02    6.36    6.73    7.01    7.18    1.18    0.51    0.51    0.47    0.40    0.35    0.23    0.18    0.18    4.79    4.70    5.58    6.21    6.41    6.71    6.96    7.19    7.37
 2015 181    56   100     3   100.2    93.6     6.7   26.41   89.31    6.30    0.00   22.43   26.41   65.93   31.49    0.00    2.49     3.6     4.9    6.05    6.57    6.60    6.80    7.02    7.17    0.90    0.47    0.51    0.48    0.40    0.33    0.23    0.18    0.18    3.40    4.10    5.45    6.53    6.97    6.93    7.03    7.20    7.36
 2015 182    57   100     3    98.1    91.3     6.7   26.84   89.57    6.48    0.00   22.50   26.84   66.30   33.43    0.00    2.51     3.5     4.7    5.76    6.28    6.46    6.72    7.00    7.20    0.85    0.48    0.52    0.49    0.41    0.34    0.24    0.18    0.18    3.36    3.97    5.19    6.25    6.69    6.80    6.96    7.19    7.38
 2015 183    58   100     3    96.2    89.6     6.6   27.30   89.95    6.60    0.00   22.57   27.30   67.37   34.52    0.00    2.48     3.3     4.4    5.54    6.09    6.38    6.71    7.00    7.21    0.76    0.50    0.52    0.50    0.43    0.35    0.23    0.18    0.18    3.24    3.79    4.95    6.04    6.51    6.73    6.94    7.19    7.39
 2015 184    59   100     3    94.9    88.5     6.4   27.77   90.38    6.66    0.00   22.63   27.77   69.03   34.52    0.00    2.06     3.1     4.4    5.49    6.05    6.43    6.76    7.00    7.20    0.63    0.51    0.51    0.51    0.43    0.36    0.23    0.18    0.18    2.70    3.62    4.90    6.00    6.48    6.79    6.98    7.18    7.39
 2015 185    60   100     3    93.4    87.0     6.5   28.25   90.75    6.74    0.00   22.70   28.25   69.60   35.75    0.00    2.09     3.0     4.1    5.26    5.88    6.35    6.73    7.02    7.24    0.59    0.53    0.52    0.51    0.44    0.36    0.22    0.18    0.18    2.68    3.52    4.66    5.77    6.32    6.71    6.94    7.20    7.42
 2015 186    61   100     3    92.0    85.7     6.3   28.74   91.18    6.82    0.00   22.77   28.74   70.83   36.30    0.00    2.07     2.8     3.9    5.08    5.77    6.31    6.74    7.03    7.26    0.52    0.52    0.51    0.50    0.44    0.37    0.21    0.18    0.18    2.59    3.35    4.43    5.58    6.21    6.68    6.95    7.22    7.44
 2015 187    62   100     3    90.8    84.6     6.1   29.24   91.70    6.85    0.00   22.83   29.24   72.34   36.43    0.00    1.98     2.6     3.7    4.93    5.70    6.33    6.76    7.06    7.28    0.47    0.51    0.51    0.50    0.45    0.34    0.21    0.18    0.18    2.45    3.16    4.23    5.44    6.15    6.68    6.97    7.24    7.46
 2015 188    63   100     3    89.7    83.8     5.9   29.73   92.33    6.86    0.00   22.88   29.73   73.86   36.43    0.00    1.87     2.5     3.6    4.83    5.67    6.37    6.77    7.06    7.28    0.44    0.46    0.51    0.50    0.45    0.32    0.20    0.18    0.18    2.31    2.98    4.06    5.33    6.12    6.69    6.98    7.25    7.47
 2015 189    64   100     3    89.2    83.6     5.6   30.21   93.11    6.86    0.00   22.91   30.21   74.79   36.43    0.00    1.83     2.5     3.5    4.82    5.66    6.41    6.79    7.08    7.30    0.39    0.43    0.46    0.46    0.45    0.30    0.20    0.18    0.18    2.22    2.92    3.96    5.28    6.11    6.70    6.99    7.26    7.48
 2015 190    65   100     3    89.4    84.0     5.4   30.65   93.71    6.86    0.00   22.92   30.65   75.02   36.43    0.00    1.82     2.5     3.5    4.87    5.71    6.45    6.81    7.10    7.32    0.39    0.44    0.43    0.43    0.42    0.28    0.20    0.18    0.18    2.21    2.91    3.96    5.29    6.12    6.73    7.01    7.28    7.50
 2015 191    66   100     3    88.3    83.2     5.1   31.08   94.37    6.86    0.00   22.98   31.08   76.46   36.43    0.00    1.48     2.4     3.5    4.84    5.72    6.46    6.82    7.10    7.31    0.34    0.41    0.41    0.40    0.39    0.27    0.20    0.18    0.18    1.82    2.82    3.91    5.24    6.11    6.74    7.02    7.28    7.50
 2015 192    67   100     3    87.9    82.8     5.1   31.49   94.75    6.86    0.00   23.05   31.49   77.17   36.53    0.00    1.52     2.3     3.3    4.64    5.67    6.50    6.89    7.18    7.40    0.32    0.43    0.42    0.40    0.36    0.26    0.20    0.19    0.19    1.84    2.75    3.72    5.04    6.04    6.76    7.09    7.36    7.59
 2015 193    68   100     3    87.2    82.3     4.9   31.93   95.21    6.86    0.00   23.13   31.93   78.13   36.53    0.00    1.53     2.2     3.1    4.56    5.66    6.52    6.91    7.20    7.41    0.29    0.45    0.43    0.38    0.34    0.25    0.20    0.19    0.19    1.82    2.67    3.55    4.94    6.01    6.78    7.11    7.39    7.59
 2015 194    69   100     3    86.6    81.8     4.8   32.39   95.77    6.86    0.00   23.20   32.39   79.16   36.53    0.00    1.09     1.9     3.0    4.68    6.04    6.69    6.96    7.18    7.39    0.26    0.46    0.40    0.35    0.32    0.24    0.19    0.19    0.19    1.35    2.32    3.40    5.03    6.36    6.93    7.16    7.37    7.57
 2015 195    70   100     3    85.2    80.3     4.9   32.88   96.06    6.86    0.00   23.30   32.88   79.33   38.17    0.00    1.16     1.8     2.9    4.45    5.74    6.47    6.90    7.20    7.45    0.23    0.48    0.42    0.37    0.34    0.26    0.19    0.18    0.18    1.38    2.30    3.30    4.82    6.08    6.73    7.09    7.39    7.63
 2015 196    71   100     3    84.2    79.3     4.9   33.40   96.41    6.88    0.00   23.40   33.40   79.79   39.06    0.00    1.19     1.8     2.8    4.29    5.55    6.36    6.88    7.21    7.46    0.20    0.50    0.44    0.39    0.35    0.27    0.19    0.18    0.18    1.39    2.26    3.23    4.68    5.90    6.63    7.07    7.39    7.64
 2015 197    72   100     3    84.2    79.3     4.9   33.93   96.86    6.89    0.00   23.50   33.93   80.07   39.24    0.00    1.27     1.8     2.8    4.23    5.46    6.36    6.90    7.23    7.48    0.17    0.51    0.45    0.40    0.37    0.25    0.19    0.18    0.18    1.44    2.28    3.22    4.63    5.83    6.62    7.09    7.42    7.67
 2015 198    73   100     3    84.5    79.6     4.9   34.46   97.32    6.90    0.00   23.57   34.46   80.19   39.24    0.00    1.05     1.7     2.8    4.46    5.58    6.44    6.91    7.21    7.46    0.15    0.52    0.45    0.40    0.38    0.24    0.19    0.18    0.18    1.19    2.23    3.30    4.87    5.96    6.69    7.09    7.39    7.64
 2015 199    74   100     3    83.5    78.5     5.0   34.96   97.67    7.05    0.00   23.65   34.96   80.21   40.55    0.00    1.11     1.7     2.7    4.22    5.35    6.30    6.88    7.25    7.51    0.13    0.54    0.47    0.42    0.39    0.23    0.18    0.18    0.18    1.24    2.22    3.20    4.65    5.74    6.53    7.07    7.43    7.69

*DSSAT Cropping System Model Ver. 4.7.5.007 -  MAR 01, 2026 21:01:02
!                                                                                                                              NO3 (ppm) at soil dep. (cm):                                            NH4 (ppm) at soil dep. (cm):                                            Total Inorganic N @dep(ppm):
!                                                                                                                              0-10   10-20   20-30   30-40   40-50   50-60   60-70   70-80   80-90    0-10   10-20   20-30   30-40   40-50   50-60   60-70   70-80   80-90    0-10   10-20   20-30   30-40   40-50   50-60   60-70   70-80   80-90
@YEAR DOY   DAS  NAPC  NI#M    NIAD    NITD    NHTD    NMNC    NITC    NDNC    NIMC    AMLC   NNMNC    NUCM    NLCC    TDFC    NI1D    NI2D    NI3D    NI4D    NI5D    NI6D    NI7D    NI8D    NI9D    NH1D    NH2D    NH3D    NH4D    NH5D    NH6D    NH7D    NH8D    NH9D    NT1D    NT2D    NT3D    NT4D    NT5D    NT6D    NT7D    NT8D    NT9D    
 2015 147     0     0     0   100.1    90.3     9.8    0.00    0.00    0.00    0.00    0.00    0.00    0.00    0.00    0.00    5.50     5.5     5.5    5.50    5.50    5.50    5.50    5.50    5.50    0.60    0.60    0.60    0.60    0.60    0.60    0.60    0.60    0.60    6.10    6.10    6.10    6.10    6.10    6.10    6.10    6.10    6.10
 2015 148     1    20     1   114.7    92.0    22.7    0.53    1.77    0.00    0.00    0.00    0.53    0.00    0.00    0.00    4.13     5.6     6.2    6.23    5.79    5.66    5.63    5.61    5.61    8.54    0.53    0.53    0.52    0.52    0.52    0.52    0.52    0.52   12.66    6.08    6.74    6.76    6.31    6.18    6.15    6.13    6.13
 2015 149     2    20     1   118.0    92.2    25.9    1.02    3.08    0.00    0.00    0.00    1.02    0.00    1.16    0.00    4.62     5.4     6.0    6.07    5.73    5.70    5.69    5.69    5.69   10.54    0.54    0.54    0.53    0.52    0.46    0.46    0.46    0.47   15.17    5.90    6.50    6.60    6.26    6.16    6.16    6.16    6.16
 2015 150     3    20     1   119.3    93.4    25.9    1.52    4.78    0.00    0.00    0.00    1.52    0.00    1.63    0.00    5.41     5.3     5.8    5.96    5.72    5.77    5.77    5.77    5.77   10.69    0.61    0.55    0.54    0.52    0.42    0.42    0.42    0.42   16.10    5.87    6.34    6.49    6.24    6.19    6.19    6.19    6.19
 2015 151     4    20     1   120.2    95.3    24.8    2.01    6.77    0.00    0.00    0.00    2.01    0.00    1.71    0.00    6.36     5.2     5.7    5.89    5.78    5.84    5.84    5.84    5.84   10.25    0.65    0.55    0.54    0.46    0.38    0.38    0.38    0.38   16.60    5.88    6.24    6.43    6.25    6.21    6.22    6.22    6.22
 2015 152     5    20     1   120.8    97.4    23.4    2.50    8.82    0.00    0.00    0.00    2.50    0.00    1.71    0.00    7.39     5.2     5.6    5.86    5.86    5.90    5.88    5.85    5.85    9.61    0.66    0.55    0.53    0.42    0.34    0.35    0.35    0.35   17.00    5.90    6.19    6.40    6.28    6.25    6.22    6.20    6.20
 2015 153     6    20     1   121.3    99.6    21.7    2.99   11.05    0.02    0.00    0.00    2.99    0.00    1.71    0.00    8.45     5.3     5.6    5.91    5.89    5.91    5.88    5.86    5.85    8.93    0.60    0.55    0.48    0.38    0.32    0.32    0.32    0.32   17.38    5.94    6.17    6.39    6.27    6.23    6.20    6.18    6.18
 2015 154     7    20     1   121.7   103.1    18.7    3.48   14.61    0.02    0.00    0.00    3.48    0.10    1.71    0.00   10.27     5.4     5.7    5.95    5.90    5.91    5.89    5.86    5.86    7.49    0.54    0.49    0.43    0.35    0.30    0.30    0.30    0.30   17.76    5.94    6.15    6.37    6.25    6.21    6.18    6.16    6.15
 2015 155     8    20     1   122.1   106.1    16.0    3.98   17.73    0.02    0.00    0.00    3.98    0.21    1.71    0.00    8.83     6.5     6.6    6.52    6.11    5.98    5.94    5.91    5.90    6.25    0.48    0.44    0.39    0.32    0.28    0.28    0.28    0.28   15.08    6.96    7.03    6.91    6.43    6.25    6.21    6.19    6.18
 2015 156     9    20     1   122.5   106.9    15.6    4.46   18.58    0.02    0.00    0.00    4.46    0.28    1.71    0.00    9.11     6.3     6.3    6.39    6.12    6.10    6.11    6.11    6.10    6.07    0.50    0.46    0.40    0.29    0.26    0.26    0.26    0.26   15.18    6.83    6.81    6.79    6.42    6.36    6.37    6.38    6.36
 2015 157    10    20     1   122.5   107.5    15.1    4.95   19.61    0.02    0.00    0.00    4.95    0.46    2.00    0.00    9.57     6.2     6.2    6.30    6.17    6.15    6.16    6.16    6.15    5.78    0.51    0.47    0.41    0.28    0.25    0.25    0.25    0.25   15.35    6.75    6.65    6.71    6.44    6.39    6.40    6.40    6.40
 2015 158    11    20     1   122.8   108.5    14.4    5.43   20.72    0.02    0.00    0.00    5.43    0.63    2.00    0.00   10.17     6.2     6.1    6.25    6.21    6.19    6.20    6.20    6.16    5.44    0.52    0.48    0.41    0.26    0.24    0.24    0.24    0.24   15.61    6.69    6.55    6.67    6.47    6.42    6.43    6.43    6.40
 2015 159    12    20     1   123.1   109.5    13.6    5.90   21.95    0.02    0.00    0.00    5.90    0.83    2.00    0.00   10.86     6.1     6.0    6.27    6.25    6.20    6.18    6.18    6.15    5.06    0.52    0.48    0.38    0.25    0.23    0.23    0.23    0.23   15.93    6.66    6.49    6.65    6.50    6.43    6.41    6.41    6.38
 2015 160    13    20     1   123.3   110.7    12.7    6.38   23.26    0.03    0.00    0.00    6.38    1.07    2.00    0.00    8.67     7.0     6.9    7.02    6.46    6.24    6.17    6.16    6.13    4.68    0.47    0.48    0.34    0.24    0.22    0.22    0.22    0.22   13.35    7.48    7.35    7.37    6.70    6.46    6.39    6.39    6.35
 2015 161    14    20     1   123.0   110.5    12.5    6.84   23.86    0.27    0.00    0.00    6.84    1.16    2.44    0.00    8.85     6.8     6.6    6.82    6.39    6.30    6.30    6.31    6.30    4.56    0.49    0.50    0.36    0.25    0.21    0.21    0.21    0.22   13.41    7.30    7.09    7.18    6.65    6.51    6.52    6.53    6.52
 2015 162    15    20     1   122.5   110.3    12.2    7.32   24.62    0.42    0.00    0.00    7.32    1.46    3.01    0.00    9.13     6.7     6.4    6.68    6.37    6.34    6.34    6.34    6.34    4.34    0.50    0.51    0.37    0.27    0.21    0.21    0.21    0.21   13.47    7.16    6.90    7.06    6.63    6.54    6.55    6.55    6.55
 2015 163    16    60     2   160.8   110.8    50.0    7.80   25.53    0.50    0.00    0.11    7.80    1.84    3.01    0.00    9.62     6.5     6.3    6.59    6.40    6.37    6.37    6.38    6.37   25.83    0.51    0.51    0.38    0.25    0.20    0.20    0.20    0.21   35.45    7.04    6.77    6.97    6.65    6.58    6.58    6.58    6.58
 2015 164    17    60     2   161.9   114.2    47.6    8.28   29.21    0.54    0.00    0.22    8.28    2.26    3.01    0.00   11.77     6.5     6.2    6.53    6.44    6.39    6.35    6.36    6.35   24.50    0.51    0.51    0.39    0.24    0.20    0.20    0.20    0.20   36.28    6.98    6.70    6.92    6.68    6.59    6.55    6.56    6.55
 2015 165    18    60     2   162.1   118.0    44.1    8.76   33.21    0.55    0.00    0.33    8.76    2.72    3.01    0.00   10.92     7.5     7.1    7.25    6.64    6.43    6.33    6.33    6.33   22.59    0.46    0.51    0.36    0.23    0.20    0.20    0.20    0.20   33.51    7.92    7.65    7.60    6.87    6.63    6.53    6.53    6.52
 2015 166    19    60     2   161.5   118.7    42.8    9.23   34.80    0.83    0.00    0.44    9.23    2.92    3.51    0.00   11.59     7.3     6.9    7.04    6.58    6.48    6.47    6.48    6.47   21.80    0.51    0.52    0.37    0.25    0.19    0.19    0.19    0.19   33.39    7.79    7.38    7.41    6.82    6.67    6.66    6.67    6.67
 2015 167    20    60     2   160.7   120.1    40.6    9.72   37.22    1.01    0.00    0.56    9.72    3.55    3.96    0.00   12.80     7.1     6.7    6.89    6.56    6.51    6.50    6.51    6.50   20.49    0.53    0.53    0.38    0.23    0.19    0.19    0.19    0.19   33.29    7.66    7.18    7.27    6.80    6.70    6.69    6.70    6.70
 2015 168    21    60     2   160.3   122.4    37.9   10.21   40.03    1.11    0.00    0.67   10.21    4.20    3.96    0.00   14.33     7.0     6.5    6.79    6.60    6.54    6.54    6.54    6.50   18.98    0.54    0.53    0.39    0.23    0.19    0.19    0.19    0.19   33.31    7.56    7.05    7.18    6.83    6.73    6.73    6.73    6.69
 2015 169    22    60     2   159.9   124.9    35.0   10.70   42.98    1.16    0.00    0.76   10.70    4.94    3.96    0.00   15.94     6.9     6.4    6.74    6.64    6.57    6.52    6.53    6.48   17.38    0.54    0.52    0.40    0.22    0.19    0.19    0.19    0.19   33.32    7.48    6.96    7.13    6.85    6.76    6.71    6.71    6.67
 2015 170    23    60     2   159.4   129.9    29.5   11.19   48.60    1.16    0.00    0.86   11.19    5.83    3.96    0.00   19.08     6.9     6.4    6.73    6.62    6.55    6.50    6.51    6.46   14.33    0.48    0.51    0.36    0.21    0.19    0.19    0.19    0.19   33.42    7.36    6.89    7.09    6.83    6.73    6.69    6.69    6.64
 2015 171    24    60     2   158.8   134.0    24.8   11.67   53.30    1.16    0.00    0.96   11.67    6.78    3.96    0.00   21.63     6.8     6.4    6.72    6.59    6.53    6.48    6.48    6.44   11.84    0.43    0.46    0.33    0.21    0.18    0.18    0.18    0.18   33.47    7.23    6.81    7.05    6.80    6.71    6.66    6.67    6.62
 2015 172    25    60     2   158.7   137.4    21.3   12.15   57.09    1.16    0.00    1.00   12.15    7.37    3.96    0.00   23.36     6.8     6.4    6.75    6.62    6.55    6.51    6.51    6.46    9.93    0.40    0.42    0.31    0.20    0.18    0.18    0.18    0.18   33.30    7.19    6.80    7.06    6.82    6.74    6.69    6.69    6.65
 2015 173    26    60     2   158.5   140.1    18.5   12.60   60.18    1.16    0.00    1.04   12.60    7.93    3.96    0.00   20.63     9.9     7.0    6.89    6.64    6.58    6.53    6.54    6.49    8.41    0.37    0.39    0.29    0.20    0.18    0.18    0.18    0.18   29.04   10.29    7.39    7.17    6.84    6.76    6.72    6.72    6.67
 2015 174    27    60     2   158.2   140.2    18.0   13.05   60.95    1.16    0.00    1.13   13.05    8.67    3.96    0.00   20.56     9.8     6.9    6.88    6.78    6.73    6.62    6.52    6.47    8.12    0.39    0.40    0.27    0.20    0.18    0.18    0.18    0.18   28.68   10.17    7.33    7.16    6.97    6.92    6.81    6.70    6.65
 2015 175    28    60     2   157.3   140.2    17.1   13.49   61.94    1.16    0.00    1.23   13.49    9.86    3.96    0.00   20.84     9.6     6.8    6.88    6.79    6.76    6.69    6.49    6.44    7.62    0.41    0.40    0.26    0.20    0.18    0.18    0.18    0.18   28.46    9.96    7.25    7.14    6.99    6.95    6.88    6.68    6.63
 2015 176    29    60     2   156.5   140.4    16.1   13.93   63.09    1.16    0.00    1.30   13.93   10.99    3.96    0.00   21.23     9.4     6.8    6.88    6.81    6.77    6.68    6.48    6.43    7.07    0.42    0.38    0.25    0.19    0.18    0.18    0.18    0.18   28.30    9.77    7.19    7.14    7.00    6.96    6.86    6.66    6.61
 2015 177    30    60     2   155.6   140.7    14.9   14.37   64.38    1.16    0.00    1.40   14.37   12.25    3.96    0.00   15.71    11.2     8.8    8.03    7.18    6.87    6.65    6.45    6.41    6.44    0.39    0.36    0.24    0.19    0.18    0.18    0.18    0.18   22.15   11.64    9.14    8.28    7.37    7.06    6.84    6.64    6.59
 2015 178    31    60     2   155.2   140.6    14.6   14.80   64.92    1.40    0.00    1.48   14.80   12.75    3.96    0.00   15.62    10.9     8.6    7.85    7.09    6.85    6.81    6.83    6.79    6.20    0.41    0.37    0.26    0.21    0.20    0.18    0.18    0.19   21.82   11.28    8.94    8.12    7.30    7.05    7.00    7.01    6.97
 2015 179    32    60     2   153.3   139.3    13.9   15.24   65.66    1.54    0.00    1.56   15.24   14.26    4.62    0.00   15.70    10.5     8.3    7.69    7.02    6.87    6.84    6.85    6.86    5.76    0.43    0.39    0.28    0.23    0.20    0.19    0.19    0.19   21.46   10.88    8.69    7.96    7.25    7.07    7.03    7.04    7.05
 2015 180    33    60     2   151.6   138.4    13.1   15.67   66.48    1.61    0.00    1.64   15.67   16.07    4.80    0.00   15.93    10.1     8.1    7.54    6.98    6.90    6.87    6.88    6.89    5.25    0.44    0.40    0.29    0.24    0.20    0.19    0.19    0.19   21.18   10.51    8.46    7.83    7.22    7.09    7.05    7.06    7.07
 2015 181    34    60     2   150.1   137.9    12.2   16.11   67.48    1.62    0.00    1.72   16.11   17.88    4.80    0.00   12.38    10.8     9.4    8.35    7.22    6.97    6.85    6.86    6.87    4.73    0.41    0.41    0.30    0.23    0.20    0.19    0.19    0.19   17.11   11.24    9.76    8.65    7.45    7.17    7.04    7.04    7.05
 2015 182    35    60     2   148.3   136.3    12.0   16.54   67.93    1.99    0.00    1.79   16.54   18.48    6.01    0.00   12.36    10.4     9.0    8.14    7.18    6.95    6.92    6.93    6.94    4.53    0.43    0.42    0.32    0.25    0.21    0.19    0.19    0.19   16.89   10.84    9.41    8.46    7.42    7.16    7.10    7.11    7.12
 2015 183    36   100     3   177.6   134.5    43.1   16.99   68.59    2.20    0.00    8.17   16.99   20.40    6.67    0.00   12.40     9.9     8.6    7.93    7.12    6.98    6.94    6.95    6.96   22.15    0.45    0.44    0.33    0.26    0.21    0.19    0.19    0.19   34.55   10.38    9.06    8.27    7.38    7.19    7.13    7.14    7.15
 2015 184    37   100     3   172.8   135.1    37.7   17.45   71.26    2.30    0.00   11.53   17.45   23.61    6.67    0.00   12.06    10.2     8.9    7.95    7.17    7.02    6.94    6.94    6.95   19.02    0.46    0.45    0.34    0.27    0.20    0.19    0.19    0.19   31.08   10.70    9.33    8.29    7.44    7.22    7.12    7.13    7.14
 2015 185    38   100     3   169.0   134.5    34.5   17.91   72.68    2.58    0.00   13.77   17.91   24.90    7.44    0.00   12.46     9.9     8.5    7.80    7.13    7.05    7.00    7.01    7.02   17.08    0.54    0.46    0.35    0.28    0.20    0.19    0.19    0.19   29.55   10.40    8.99    8.16    7.41    7.25    7.19    7.19    7.20
 2015 186    39   100     3   165.7   133.9    31.8   18.39   74.62    2.78    0.00   14.17   18.39   27.92    7.76    0.00   13.10     9.4     8.2    7.63    7.08    7.08    7.03    7.04    7.04   15.52    0.56    0.47    0.36    0.29    0.20    0.18    0.18    0.18   28.61    9.94    8.63    7.99    7.38    7.27    7.22    7.22    7.23
 2015 187    40   100     3   163.4   134.5    28.9   18.88   76.90    2.85    0.00   14.48   18.88   30.32    7.76    0.00   13.99     9.1     7.9    7.54    7.11    7.11    7.06    7.05    7.04   13.90    0.56    0.47    0.37    0.28    0.19    0.18    0.18    0.18   27.89    9.63    8.42    7.91    7.39    7.30    7.25    7.24    7.23
 2015 188    41   100     3   161.5   135.4    26.0   19.37   79.34    2.86    0.00   14.67   19.37   32.60    7.76    0.00   14.91     8.9     7.8    7.46    7.11    7.11    7.07    7.06    7.05   12.37    0.50    0.44    0.38    0.26    0.19    0.18    0.18    0.18   27.28    9.38    8.27    7.84    7.37    7.31    7.25    7.24    7.23
 2015 189    42   100     3   160.2   138.0    22.2   19.83   83.02    2.86    0.00   14.77   19.83   34.23    7.76    0.00   16.36     8.9     7.8    7.45    7.12    7.13    7.08    7.07    7.07   10.29    0.47    0.41    0.35    0.25    0.19    0.18    0.18    0.18   26.65    9.37    8.17    7.80    7.37    7.32    7.27    7.26    7.25
 2015 190    43   100     3   159.8   138.9    20.8   20.26   84.49    2.86    0.00   14.84   20.26   35.01    7.76    0.00   16.74     8.9     7.8    7.46    7.14    7.15    7.10    7.09    7.09    9.57    0.48    0.38    0.33    0.24    0.19    0.18    0.18    0.18   26.30    9.35    8.20    7.79    7.38    7.34    7.29    7.28    7.27
 2015 191    44   100     3   157.6   139.7    17.9   20.68   86.93    2.86    0.00   15.02   20.68   37.46    7.76    0.00   12.65    10.0     9.2    8.64    7.60    7.27    7.12    7.09    7.08    7.96    0.45    0.37    0.31    0.24    0.19    0.18    0.18    0.18   20.61   10.46    9.57    8.95    7.84    7.46    7.31    7.28    7.27
 2015 192    45   100     3   155.6   138.3    17.3   21.08   87.52    2.86    0.00   15.20   21.08   38.46    8.98    0.00   12.67     9.7     8.9    8.42    7.51    7.24    7.19    7.19    7.20    7.53    0.47    0.38    0.33    0.25    0.21    0.19    0.19    0.19   20.20   10.12    9.25    8.74    7.76    7.45    7.37    7.37    7.38
 2015 193    46   100     3   151.9   135.9    16.0   21.51   88.36    2.86    0.00   15.36   21.51   41.66    9.75    0.00   12.55     9.1     8.5    8.18    7.42    7.26    7.21    7.21    7.22    6.74    0.48    0.40    0.34    0.26    0.20    0.19    0.19    0.19   19.29    9.60    8.86    8.52    7.68    7.46    7.40    7.40    7.41
 2015 194    47   100     3   149.1   134.5    14.6   21.97   89.36    2.86    0.00   15.49   21.97   44.75    9.75    0.00    9.04     9.0     9.1    8.91    8.26    7.70    7.33    7.25    7.22    5.91    0.49    0.41    0.35    0.28    0.20    0.19    0.19    0.19   14.95    9.46    9.50    9.26    8.53    7.90    7.52    7.43    7.40
 2015 195    48   100     3   146.4   132.3    14.1   22.45   89.96    2.86    0.00   15.62   22.45   45.75   11.79    0.00    9.15     8.6     8.7    8.63    8.06    7.58    7.31    7.27    7.27    5.52    0.51    0.43    0.37    0.30    0.22    0.20    0.18    0.18   14.66    9.10    9.13    9.01    8.35    7.80    7.51    7.45    7.45
 2015 196    49   100     3   142.5   129.4    13.1   22.97   90.81    3.17    0.00   15.74   22.97   48.63   12.92    0.00    9.10     8.1     8.3    8.34    7.86    7.51    7.30    7.29    7.30    4.83    0.51    0.44    0.39    0.31    0.24    0.22    0.18    0.18   13.93    8.58    8.69    8.73    8.17    7.75    7.52    7.48    7.48
 2015 197    50   100     3   139.1   127.3    11.8   23.50   91.80    3.30    0.00   15.85   23.50   51.87   13.32    0.00    9.13     7.6     7.9    8.11    7.71    7.46    7.32    7.32    7.33    4.09    0.51    0.45    0.40    0.33    0.25    0.21    0.18    0.18   13.22    8.12    8.34    8.51    8.03    7.71    7.53    7.51    7.51
 2015 198    51   100     3   137.0   126.9    10.1   24.02   93.44    3.33    0.00   15.93   24.02   54.36   13.32    0.00    7.55     7.8     8.6    8.43    7.76    7.51    7.37    7.32    7.33    3.16    0.46    0.45    0.41    0.34    0.27    0.21    0.18    0.18   10.71    8.23    9.01    8.84    8.09    7.77    7.57    7.50    7.51
 2015 199    52   100     3   134.9   125.0     9.9   24.52   93.96    3.52    0.00   16.01   24.52   55.38   14.65    0.00    7.58     7.4     8.1    8.14    7.65    7.47    7.39    7.38    7.39    2.96    0.48    0.47    0.42    0.35    0.28    0.20    0.18    0.18   10.55    7.93    8.58    8.56    8.00    7.75    7.59    7.56    7.57
 2015 200    53   100     3   132.2   122.8     9.4   25.02   94.57    3.62    0.00   16.09   25.02   57.76   15.32    0.00    7.48     7.0     7.7    7.89    7.55    7.46    7.42    7.41    7.42    2.62    0.50    0.48    0.43    0.36    0.29    0.20    0.18    0.18   10.10    7.53    8.18    8.32    7.91    7.75    7.62    7.59    7.60
 2015 201    54   100     3   130.0   121.2     8.8   25.51   95.27    3.66    0.00   16.16   25.51   60.24   15.42    0.00    7.40     6.7     7.4    7.71    7.50    7.49    7.45    7.44    7.44    2.27    0.51    0.49    0.43    0.36    0.27    0.20    0.18    0.18    9.67    7.19    7.87    8.14    7.86    7.76    7.65    7.62    7.62
 2015 202    55   100     3   127.8   120.1     7.7   26.00   96.46    3.66    0.00   16.24   26.00   62.83   15.42    0.00    7.56     6.4     7.1    7.59    7.47    7.49    7.44    7.42    7.43    1.76    0.47    0.49    0.40    0.34    0.26    0.19    0.18    0.18    9.32    6.89    7.59    7.99    7.81    7.75    7.63    7.60    7.61
 2015 203    56   100     3   125.9   119.1     6.8   26.49   97.58    3.66    0.00   16.31   26.49   65.21   15.42    0.00    7.62     6.2     6.9    7.48    7.44    7.49    7.44    7.42    7.42    1.37    0.43    0.45    0.37    0.31    0.25    0.19    0.18    0.18    8.99    6.62    7.32    7.85    7.76    7.74    7.63    7.60    7.60
 2015 204    57   100     3   125.5   119.4     6.1   26.98   98.61    3.66    0.00   16.35   26.98   66.01   15.42    0.00    5.55     6.5     7.8    8.05    7.62    7.56    7.47    7.44    7.45    1.14    0.40    0.42    0.34    0.29    0.24    0.19    0.18    0.18    6.69    6.94    8.17    8.39    7.92    7.80    7.66    7.63    7.63
 2015 205    58   100     3   124.4   118.3     6.1   27.48   99.01    3.66    0.00   16.42   27.48   66.73   16.24    0.00    5.57     6.3     7.4    7.77    7.54    7.62    7.57    7.55    7.55    1.08    0.42    0.44    0.35    0.30    0.23    0.19    0.18    0.18    6.64    6.70    7.83    8.13    7.84    7.85    7.76    7.73    7.73
 2015 206    59   100     3   122.6   116.7     5.9   28.00   99.55    3.66    0.00   16.49   28.00   68.52   16.70    0.00    5.54     5.9     7.0    7.53    7.50    7.65    7.61    7.58    7.58    0.95    0.44    0.45    0.37    0.28    0.22    0.19    0.18    0.18    6.49    6.38    7.49    7.90    7.78    7.87    7.79    7.76    7.76
 2015 207    60   100     3   120.9   115.2     5.7   28.53  100.12    3.66    0.00   16.56   28.53   70.71   16.70    0.00    5.44     5.6     6.7    7.35    7.50    7.69    7.64    7.61    7.58    0.81    0.45    0.46    0.37    0.26    0.21    0.18    0.18    0.18    6.25    6.08    7.20    7.73    7.76    7.90    7.82    7.79    7.76
 2015 208    61   100     3   119.2   114.0     5.1   29.06  100.98    3.66    0.00   16.63   29.06   72.88   16.70    0.00    5.42     5.4     6.5    7.25    7.47    7.68    7.63    7.60    7.57    0.61    0.41    0.46    0.34    0.25    0.21    0.18    0.18    0.18    6.03    5.83    6.96    7.60    7.72    7.89    7.81    7.78    7.75
 2015 209    62   100     3   117.8   113.2     4.6   29.59  101.86    3.66    0.00   16.71   29.59   74.64   16.70    0.00    3.90     5.2     6.8    7.98    7.72    7.74    7.61    7.59    7.55    0.46    0.38    0.42    0.32    0.24    0.20    0.18    0.18    0.18    4.35    5.54    7.22    8.30    7.96    7.94    7.80    7.76    7.73
 2015 210    63   100     3   116.7   112.0     4.7   30.10  102.20    3.66    0.00   16.76   30.10   75.05   17.84    0.00    3.87     5.0     6.5    7.66    7.56    7.75    7.73    7.71    7.70    0.44    0.40    0.44    0.34    0.25    0.20    0.18    0.18    0.18    4.32    5.36    6.91    7.99    7.81    7.94    7.91    7.88    7.88
 2015 211    64   100     3   115.4   110.6     4.8   30.64  102.60    3.66    0.00   16.84   30.64   76.23   18.47    0.00    3.89     4.7     6.2    7.39    7.46    7.76    7.76    7.74    7.73    0.41    0.42    0.45    0.35    0.26    0.19    0.18    0.18    0.18    4.30    5.15    6.63    7.75    7.72    7.95    7.94    7.92    7.91
 2015 212    65   100     3   114.1   109.4     4.7   31.18  103.11    3.66    0.00   16.93   31.18   77.99   18.47    0.00    3.85     4.5     5.9    7.19    7.41    7.78    7.79    7.77    7.76    0.37    0.44    0.46    0.36    0.25    0.19    0.18    0.18    0.18    4.22    4.92    6.38    7.55    7.66    7.97    7.97    7.95    7.94
 2015 213    66   100     3   112.8   108.3     4.5   31.72  103.78    3.66    0.00   17.01   31.72   79.70   18.47    0.00    2.93     4.2     6.0    7.51    7.59    7.83    7.77    7.75    7.74    0.29    0.40    0.46    0.37    0.24    0.19    0.18    0.18    0.18    3.22    4.63    6.49    7.89    7.82    8.01    7.95    7.92    7.91
 2015 214    67   100     3   111.6   107.0     4.6   32.24  104.13    3.81    0.00   17.09   32.24   80.14   19.59    0.00    3.00     4.1     5.7    7.15    7.41    7.79    7.84    7.84    7.83    0.27    0.42    0.48    0.39    0.25    0.18    0.18    0.18    0.18    3.27    4.51    6.18    7.54    7.66    7.97    8.02    8.01    8.00
 2015 215    68   100     3   110.4   105.8     4.6   32.78  104.53    3.88    0.00   17.19   32.78   81.19   20.02    0.00    3.08     3.9     5.4    6.89    7.30    7.79    7.87    7.87    7.86    0.24    0.44    0.49    0.40    0.26    0.18    0.18    0.17    0.18    3.31    4.37    5.94    7.29    7.56    7.97    8.05    8.04    8.03
 2015 216    69   100     3   110.0   105.4     4.6   33.31  105.02    3.92    0.00   17.28   33.31   82.07   20.02    0.00    2.38     3.6     5.4    7.14    7.80    7.95    7.90    7.84    7.83    0.20    0.45    0.50    0.41    0.25    0.18    0.18    0.17    0.17    2.58    4.03    5.85    7.55    8.05    8.13    8.07    8.01    8.00
 2015 217    70   100     3   108.4   103.7     4.7   33.83  105.31    4.07    0.00   17.39   33.83   82.36   21.56    0.00    2.51     3.5     5.1    6.75    7.51    7.79    7.90    7.92    7.92    0.17    0.47    0.51    0.43    0.27    0.20    0.17    0.17    0.17    2.68    3.96    5.59    7.18    7.78    7.98    8.08    8.09    8.09
 2015 218    71   100     3   107.6   102.8     4.7   34.36  105.70    4.21    0.00   17.49   34.36   82.73   22.33    0.00    2.64     3.4     4.9    6.52    7.33    7.73    7.92    7.95    7.95    0.14    0.49    0.52    0.44    0.28    0.19    0.17    0.17    0.17    2.78    3.92    5.44    6.96    7.61    7.92    8.09    8.12    8.12
 2015 219    72   100     3   107.7   102.9     4.8   34.91  106.14    4.28    0.00   17.56   34.91   82.91   22.40    0.00    2.82     3.5     4.9    6.42    7.24    7.75    7.94    7.98    7.98    0.13    0.50    0.52    0.44    0.30    0.19    0.17    0.17    0.17    2.96    3.95    5.39    6.86    7.54    7.94    8.12    8.15    8.15
 2015 220    73   100     3   108.1   103.3     4.8   35.46  106.61    4.30    0.00   17.63   35.46   82.94   22.40    0.00    2.30     3.4     5.0    6.85    7.48    7.84    7.93    7.94    7.94    0.12    0.51    0.52    0.45    0.31    0.19    0.17    0.17    0.17    2.42    3.86    5.55    7.29    7.79    8.02    8.11    8.12    8.12
 2015 221    74   100     3   107.0   102.1     4.9   35.99  106.97    4.59    0.00   17.69   35.99   82.94   23.76    0.00    2.41     3.3     4.8    6.49    7.23    7.72    7.96    8.04    8.04    0.12    0.53    0.53    0.46    0.33    0.18    0.17    0.17    0.17    2.53    3.80    5.34    6.95    7.55    7.91    8.14    8.21    8.22

*DSSAT Cropping System Model Ver. 4.7.5.007 -  MAR 01, 2026 21:01:02
!                                                                                                                              NO3 (ppm) at soil dep. (cm):                                            NH4 (ppm) at soil dep. (cm):                                            Total Inorganic N @dep(ppm):
!                                                                                                                              0-10   10-20   20-30   30-40   40-50   50-60   60-70   70-80   80-90    0-10   10-20   20-30   30-40   40-50   50-60   60-70   70-80   80-90    0-10   10-20   20-30   30-40   40-50   50-60   60-70   70-80   80-90
@YEAR DOY   DAS  NAPC  NI#M    NIAD    NITD    NHTD    NMNC    NITC    NDNC    NIMC    AMLC   NNMNC    NUCM    NLCC    TDFC    NI1D    NI2D    NI3D    NI4D    NI5D    NI6D    NI7D    NI8D    NI9D    NH1D    NH2D    NH3D    NH4D    NH5D    NH6D    NH7D    NH8D    NH9D    NT1D    NT2D    NT3D    NT4D    NT5D    NT6D    NT7D    NT8D    NT9D    
 2015 160     0     0     0   100.1    90.3     9.8    0.00    0.00    0.00    0.00    0.00    0.00    0.00    0.00    0.00    5.50     5.5     5.5    5.50    5.50    5.50    5.50    5.50    5.50    0.60    0.60    0.60    0.60    0.60    0.60    0.60    0.60    0.60    6.10    6.10    6.10    6.10    6.10    6.10    6.10    6.10    6.10
[...]
 2016 166    13    20     1   122.2   109.2    13.1    5.12   21.28    0.92    0.00    0.00    5.12    1.01    0.29    0.00   14.98     8.7     8.3    8.62    8.57    8.56    8.55    8.49    8.30    7.63    0.57    0.31    0.25    0.25    0.26    0.26    0.26    0.26   22.61    9.31    8.66    8.88    8.82    8.81    8.81    8.75    8.56
 2016 167    14    20     1   122.3   110.2    12.1    5.48   22.51    0.95    0.00    0.00    5.48    1.27    0.29    0.00   16.03     8.7     8.4    8.59    8.54    8.52    8.51    8.46    8.27    6.98    0.56    0.30    0.25    0.25    0.25    0.25    0.25    0.25   23.01    9.24    8.65    8.84    8.78    8.77    8.76    8.71    8.52
 2016 168    15    20     1   122.3   111.1    11.2    5.84   23.73    0.95    0.00    0.00    5.84    1.59    0.29    0.00   16.07     9.4     8.5    8.55    8.50    8.49    8.48    8.42    8.23    6.35    0.50    0.28    0.24    0.24    0.24    0.24    0.25    0.25   22.43    9.93    8.78    8.79    8.74    8.73    8.72    8.66    8.48
 2016 169    16    20     1   122.1   111.3    10.8    6.20   24.44    1.14    0.00    0.00    6.20    1.97    0.29    0.00   15.24    10.2     8.8    8.63    8.47    8.45    8.44    8.38    8.19    6.10    0.50    0.27    0.24    0.24    0.24    0.24    0.24    0.24   21.34   10.68    9.02    8.87    8.71    8.69    8.68    8.62    8.44
 2016 170    17    20     1   121.9   111.5    10.4    6.57   25.14    1.33    0.00    0.00    6.57    2.30    0.29    0.00   15.25     9.8     8.6    8.76    8.80    8.67    8.43    8.38    8.20    5.83    0.51    0.28    0.23    0.23    0.23    0.23    0.23    0.24   21.08   10.35    8.87    8.99    9.03    8.91    8.67    8.61    8.43
 2016 171    18    20     1   121.7   111.8     9.9    6.95   26.00    1.44    0.00    0.00    6.95    2.84    0.29    0.00   14.24    10.7     8.9    8.86    8.79    8.64    8.40    8.34    8.16    5.42    0.51    0.28    0.23    0.23    0.23    0.23    0.23    0.23   19.66   11.23    9.21    9.09    9.02    8.87    8.63    8.57    8.39
 2016 172    19    20     1   121.6   112.0     9.6    7.33   26.61    1.64    0.00    0.00    7.33    3.11    0.29    0.00   14.24    10.3     8.8    8.81    8.87    8.88    8.88    8.37    8.13    5.23    0.52    0.29    0.22    0.22    0.22    0.22    0.23    0.23   19.46   10.81    9.05    9.03    9.09    9.10    9.10    8.59    8.35
 2016 173    20    20     1   121.2   112.1     9.1    7.71   27.39    1.84    0.00    0.00    7.71    3.64    0.29    0.00   14.56     9.9     8.6    8.83    8.90    8.92    8.92    8.59    8.09    4.88    0.51    0.29    0.22    0.22    0.22    0.22    0.22    0.22   19.44   10.42    8.92    9.05    9.12    9.14    9.14    8.81    8.31
 2016 174    21    20     1   120.7   112.2     8.5    8.10   28.27    1.95    0.00    0.00    8.10    4.41    0.29    0.00   14.53    10.1     8.7    8.85    8.86    8.88    8.88    8.55    8.06    4.45    0.50    0.28    0.22    0.22    0.22    0.22    0.22    0.22   18.98   10.57    9.00    9.07    9.08    9.10    9.10    8.77    8.28
 2016 175    22    20     1   120.3   112.2     8.2    8.49   28.93    2.18    0.00    0.00    8.49    4.94    0.29    0.00   14.57     9.8     8.6    8.86    8.97    9.00    9.00    8.63    8.04    4.22    0.50    0.28    0.21    0.21    0.21    0.22    0.22    0.21   18.79   10.25    8.88    9.08    9.18    9.21    9.21    8.84    8.25
 2016 176    23    20     1   119.8   112.1     7.7    8.87   29.70    2.30    0.00    0.00    8.87    5.71    0.29    0.00   13.55    10.5     8.9    8.94    8.93    8.97    8.97    8.60    8.01    3.88    0.49    0.27    0.21    0.21    0.21    0.21    0.21    0.21   17.43   10.99    9.14    9.15    9.14    9.18    9.18    8.81    8.22
 2016 177    24    20     1   119.5   112.0     7.5    9.25   30.23    2.61    0.00    0.00    9.25    6.12    0.29    0.00   13.51    10.0     8.7    8.88    9.02    9.07    9.07    8.99    7.98    3.74    0.50    0.28    0.21    0.21    0.21    0.21    0.21    0.20   17.26   10.50    8.97    9.09    9.23    9.29    9.28    9.20    8.18
 2016 178    25    20     1   118.9   111.7     7.1    9.63   30.91    2.77    0.00    0.00    9.63    6.94    0.29    0.00   12.41    10.6     9.0    8.97    9.00    9.04    9.03    8.95    7.94    3.48    0.49    0.26    0.21    0.21    0.21    0.21    0.21    0.20   15.90   11.13    9.29    9.17    9.20    9.25    9.24    9.16    8.14
 2016 179    26    20     1   118.4   111.4     7.0   10.01   31.41    3.10    0.00    0.00   10.01    7.43    0.29    0.00   12.37    10.0     8.8    8.88    9.05    9.14    9.15    9.12    8.30    3.35    0.51    0.27    0.21    0.21    0.21    0.21    0.21    0.20   15.73   10.53    9.04    9.08    9.25    9.35    9.36    9.33    8.49
 2016 180    27    20     1   117.7   111.0     6.7   10.38   32.00    3.27    0.00    0.00   10.38    8.39    0.29    0.00   12.49     9.6     8.5    8.85    9.06    9.17    9.18    9.16    8.47    3.11    0.51    0.28    0.21    0.21    0.21    0.21    0.21    0.20   15.60   10.08    8.81    9.06    9.27    9.38    9.39    9.37    8.66
 2016 181    28    20     1   116.5   110.3     6.2   10.76   32.65    3.35    0.00    0.00   10.76    9.82    0.29    0.00   12.63     9.2     8.4    8.83    9.08    9.16    9.15    9.13    8.44    2.79    0.50    0.27    0.21    0.21    0.21    0.21    0.21    0.20   15.41    9.67    8.65    9.03    9.29    9.37    9.36    9.33    8.64
 2016 182    29    80     2   172.9   109.2    63.7   11.13   33.28    3.38    0.00    0.08   11.13   11.70    0.29    0.00   10.35     9.9     9.0    8.94    9.09    9.14    9.13    9.10    8.42   47.35    0.50    0.26    0.21    0.21    0.21    0.21    0.21    0.20   57.70   10.41    9.26    9.15    9.30    9.34    9.33    9.31    8.62
 2016 183    30    80     2   173.8   110.7    63.1   11.49   35.61    3.65    0.00    0.14   11.49   12.44    0.29    0.00   11.59     9.3     8.6    8.76    9.05    9.24    9.28    9.26    9.10   46.85    0.51    0.27    0.22    0.21    0.21    0.21    0.21    0.20   58.44    9.84    8.92    8.98    9.25    9.45    9.48    9.47    9.30
 2016 184    31    80     2   172.3   112.9    59.4   11.85   39.36    3.81    0.00    0.22   11.85   14.11    0.49    0.00   14.02     8.9     8.3    8.63    9.03    9.26    9.31    9.29    9.29   43.91    0.56    0.28    0.22    0.21    0.21    0.21    0.21    0.20   57.93    9.44    8.58    8.85    9.24    9.47    9.51    9.50    9.49
 2016 185    32    80     2   169.9   115.5    54.4   12.22   43.75    3.90    0.00    0.28   12.22   16.87    0.49    0.00   12.79     9.2     9.6    9.78    9.37    9.36    9.32    9.28    9.28   40.03    0.54    0.29    0.22    0.21    0.21    0.21    0.21    0.20   52.82    9.70    9.86   10.00    9.58    9.57    9.53    9.49    9.48
 2016 186    33    80     2   167.1   114.7    52.4   12.59   45.87    4.19    0.00    0.35   12.59   17.50    2.67    0.00   13.79     8.7     9.1    9.32    9.13    9.26    9.34    9.35    9.35   38.38    0.56    0.31    0.24    0.22    0.22    0.21    0.21    0.20   52.16    9.30    9.38    9.56    9.36    9.48    9.55    9.56    9.55
 2016 187    34    80     2   163.8   115.0    48.7   12.96   49.06    4.43    0.00    0.41   12.96   19.55    3.97    0.00   15.47     8.4     8.6    8.97    8.97    9.23    9.36    9.38    9.38   35.53    0.54    0.32    0.25    0.24    0.22    0.21    0.21    0.20   51.00    8.90    8.88    9.23    9.21    9.45    9.56    9.59    9.58
 2016 188    35    80     2   159.8   115.8    44.0   13.34   52.78    4.56    0.00    0.47   13.34   23.13    4.55    0.00   17.34     7.9     8.1    8.68    8.86    9.24    9.38    9.41    9.41   31.85    0.50    0.32    0.27    0.25    0.22    0.21    0.21    0.20   49.19    8.41    8.41    8.95    9.11    9.46    9.59    9.62    9.62
 2016 189    36    80     2   155.8   116.9    38.9   13.72   56.63    4.61    0.00    0.52   13.72   27.41    4.55    0.00   14.45     9.2     9.3    9.35    9.12    9.34    9.41    9.41    9.41   27.90    0.50    0.33    0.28    0.24    0.21    0.21    0.21    0.20   42.35    9.74    9.64    9.63    9.36    9.55    9.61    9.61    9.61
 2016 190    37    80     2   152.4   115.2    37.3   14.10   58.27    5.13    0.00    0.57   14.10   28.32    6.77    0.00   14.86     8.9     8.7    8.86    8.88    9.22    9.40    9.46    9.47   26.59    0.51    0.34    0.29    0.25    0.23    0.21    0.21    0.20   41.45    9.36    9.08    9.15    9.13    9.44    9.60    9.66    9.68
 2016 191    38    80     2   148.5   114.3    34.2   14.49   60.71    5.43    0.00    0.63   14.49   30.95    8.06    0.00   15.75     8.4     8.2    8.48    8.70    9.16    9.40    9.48    9.50   24.22    0.51    0.35    0.30    0.26    0.22    0.21    0.21    0.20   39.97    8.91    8.58    8.78    8.97    9.38    9.60    9.69    9.71
 2016 192    39    80     2   144.5   114.2    30.2   14.89   63.58    5.58    0.00    0.68   14.89   35.19    8.06    0.00   12.47     9.0     9.1    9.48    9.16    9.35    9.46    9.48    9.50   21.10    0.51    0.35    0.31    0.27    0.22    0.20    0.20    0.20   33.56    9.51    9.44    9.79    9.44    9.57    9.67    9.68    9.70
 2016 193    40    80     2   140.6   111.8    28.8   15.29   65.02    6.15    0.00    0.73   15.29   36.14   10.73    0.00   12.77     8.5     8.5    8.89    8.83    9.15    9.39    9.51    9.56   19.94    0.52    0.37    0.32    0.29    0.23    0.20    0.20    0.20   32.71    9.05    8.88    9.21    9.12    9.38    9.59    9.71    9.76
 2016 194    41    80     2   136.2   110.2    26.1   15.71   67.15    6.50    0.00    0.78   15.71   38.97   12.27    0.00   13.40     8.0     8.0    8.45    8.58    9.05    9.37    9.52    9.58   17.79    0.50    0.38    0.33    0.29    0.25    0.20    0.20    0.20   31.19    8.51    8.35    8.78    8.87    9.30    9.58    9.73    9.79
 2016 195    42   120     3   162.8   108.7    54.1   16.14   69.56    6.67    0.00    8.16   16.14   43.78   12.96    0.00   14.08     7.3     7.4    8.07    8.40    9.00    9.38    9.55    9.62   39.47    0.50    0.38    0.34    0.30    0.26    0.20    0.20    0.20   53.55    7.84    7.80    8.41    8.70    9.25    9.58    9.75    9.82
 2016 196    43   120     3   155.4   112.1    43.3   16.57   75.53    6.72    0.00   12.11   16.57   48.24   12.96    0.00   13.86     8.2     8.5    8.50    8.57    9.11    9.43    9.55    9.62   31.20    0.45    0.38    0.34    0.31    0.24    0.20    0.20    0.20   45.06    8.69    8.90    8.84    8.88    9.36    9.63    9.75    9.82
 2016 197    44   120     3   148.5   110.9    37.6   17.00   77.76    7.15    0.00   15.60   17.00   49.50   15.19    0.00   14.66     8.0     8.0    8.04    8.29    8.95    9.36    9.58    9.67   26.68    0.53    0.39    0.35    0.31    0.26    0.20    0.20    0.20   41.34    8.52    8.35    8.39    8.60    9.20    9.56    9.77    9.87
 2016 198    45   120     3   141.8   110.3    31.5   17.44   80.73    7.38    0.00   17.90   17.44   52.91   16.41    0.00   15.83     7.6     7.4    7.68    8.10    8.85    9.34    9.59    9.69   21.92    0.51    0.40    0.36    0.32    0.27    0.20    0.20    0.20   37.74    8.07    7.85    8.03    8.42    9.12    9.54    9.78    9.89
 2016 199    46   120     3   136.1   110.1    26.0   17.88   83.81    7.49    0.00   19.17   17.88   57.23   16.82    0.00   16.97     7.1     7.0    7.41    8.00    8.85    9.36    9.61    9.73   17.67    0.50    0.40    0.36    0.32    0.25    0.20    0.20    0.20   34.63    7.56    7.41    7.78    8.32    9.10    9.56    9.81    9.92
 2016 200    47   120     3   132.5   111.0    21.5   18.32   86.66    7.52    0.00   20.11   18.32   60.28   16.82    0.00   18.24     6.8     6.7    7.28    8.00    8.89    9.39    9.64    9.73   14.30    0.45    0.40    0.37    0.30    0.24    0.20    0.20    0.20   32.54    7.22    7.14    7.65    8.29    9.13    9.59    9.84    9.93
 2016 201    48   120     3   129.1   112.6    16.5   18.75   90.27    7.52    0.00   20.90   18.75   63.31   16.82    0.00   15.18     9.1     8.1    7.62    8.10    8.94    9.39    9.64    9.73   10.50    0.41    0.40    0.34    0.28    0.23    0.20    0.20    0.20   25.69    9.51    8.47    7.96    8.38    9.17    9.59    9.84    9.92
 2016 202    49   120     3   125.9   110.7    15.2   19.16   91.16    7.61    0.00   21.49   19.16   64.61   18.45    0.00   15.03     8.8     7.6    7.33    7.90    8.83    9.37    9.67    9.80    9.44    0.43    0.41    0.35    0.29    0.23    0.20    0.20    0.20   24.47    9.22    8.05    7.68    8.18    9.06    9.57    9.87   10.00
 2016 203    50   120     3   122.1   108.8    13.3   19.58   92.31    7.66    0.00   21.96   19.58   67.47   19.32    0.00   14.89     8.3     7.2    7.07    7.78    8.79    9.36    9.68    9.83    7.98    0.44    0.41    0.36    0.27    0.22    0.20    0.20    0.20   22.86    8.75    7.60    7.42    8.06    9.01    9.56    9.88   10.02
 2016 204    51   120     3   119.1   107.6    11.5   19.99   93.50    7.68    0.00   22.31   19.99   70.54   19.32    0.00   10.75     8.9     8.4    8.02    8.08    8.89    9.39    9.67    9.82    6.54    0.45    0.41    0.36    0.26    0.22    0.20    0.20    0.20   17.29    9.33    8.80    8.38    8.35    9.11    9.59    9.87   10.02
 2016 205    52   120     3   115.8   105.0    10.8   20.40   94.11    7.79    0.00   22.61   20.40   71.39   21.68    0.00   10.66     8.4     7.9    7.70    7.81    8.67    9.29    9.66    9.85    5.94    0.47    0.42    0.38    0.27    0.23    0.20    0.20    0.20   16.60    8.91    8.30    8.08    8.09    8.90    9.49    9.86   10.05
 2016 206    53   120     3   112.3   102.5     9.8   20.82   94.92    8.06    0.00   22.81   20.82   73.44   23.11    0.00   10.45     7.9     7.4    7.38    7.64    8.55    9.24    9.65    9.86    5.09    0.48    0.43    0.39    0.28    0.24    0.20    0.20    0.20   15.54    8.37    7.85    7.77    7.92    8.79    9.44    9.85   10.06
 2016 207    54   120     3   109.0   100.5     8.5   21.25   95.84    8.18    0.00   23.01   21.25   76.37   23.60    0.00   10.26     7.3     7.0    7.12    7.54    8.53    9.24    9.66    9.89    4.09    0.48    0.43    0.39    0.29    0.24    0.20    0.20    0.20   14.34    7.79    7.42    7.51    7.83    8.77    9.44    9.86   10.09
 2016 208    55   120     3   106.4    99.2     7.2   21.69   96.83    8.21    0.00   23.18   21.69   79.19   23.60    0.00    7.38     7.5     8.0    7.52    7.71    8.62    9.24    9.66    9.88    3.19    0.43    0.43    0.39    0.27    0.23    0.20    0.20    0.20   10.58    7.91    8.41    7.91    7.98    8.85    9.43    9.85   10.07
 2016 209    56   120     3   103.6    96.7     6.9   22.11   97.30    8.47    0.00   23.33   22.11   79.94   25.61    0.00    7.26     7.1     7.4    7.18    7.50    8.42    9.17    9.65    9.91    2.90    0.45    0.44    0.40    0.28    0.24    0.20    0.20    0.20   10.16    7.52    7.87    7.58    7.78    8.67    9.37    9.85   10.11
 2016 210    57   120     3   101.0    94.7     6.4   22.55   97.93    8.62    0.00   23.46   22.55   81.65   26.65    0.00    7.13     6.6     7.0    6.92    7.37    8.37    9.13    9.64    9.92    2.45    0.46    0.44    0.40    0.29    0.23    0.20    0.20    0.20    9.58    7.08    7.41    7.32    7.66    8.60    9.33    9.84   10.12
 2016 211    58   120     3    98.8    93.1     5.7   22.99   98.63    8.68    0.00   23.56   22.99   84.17   26.65    0.00    5.00     6.0     7.3    7.67    7.68    8.49    9.17    9.63    9.91    1.93    0.47    0.44    0.40    0.27    0.23    0.20    0.20    0.20    6.93    6.51    7.72    8.07    7.96    8.72    9.36    9.83   10.11
 2016 212    59   120     3    95.9    90.4     5.5   23.42   99.02    8.96    0.00   23.66   23.42   84.67   29.06    0.00    4.94     5.7     6.7    7.20    7.41    8.26    9.03    9.59    9.93    1.76    0.48    0.45    0.41    0.28    0.24    0.20    0.20    0.20    6.71    6.19    7.18    7.62    7.69    8.50    9.23    9.79   10.12
 2016 213    60   120     3    93.5    88.2     5.2   23.85   99.51    9.15    0.00   23.75   23.85   85.91   30.41    0.00    4.87     5.3     6.3    6.87    7.24    8.13    8.97    9.56    9.92    1.50    0.49    0.46    0.42    0.29    0.25    0.20    0.20    0.20    6.37    5.81    6.75    7.29    7.53    8.38    9.17    9.76   10.12
 2016 214    61   120     3    91.4    86.5     4.8   24.29  100.06    9.24    0.00   23.83   24.29   87.76   30.89    0.00    4.70     4.9     5.9    6.61    7.14    8.13    8.97    9.57    9.94    1.20    0.49    0.45    0.42    0.30    0.24    0.20    0.20    0.20    5.90    5.43    6.37    7.03    7.44    8.37    9.16    9.76   10.14
 2016 215    62   120     3    89.5    85.1     4.4   24.72  100.67    9.26    0.00   23.90   24.72   89.99   30.89    0.00    3.25     4.5     6.3    6.82    7.27    8.22    8.96    9.55    9.92    0.91    0.45    0.45    0.42    0.29    0.23    0.20    0.20    0.20    4.16    4.99    6.71    7.24    7.56    8.45    9.16    9.75   10.12
 2016 216    63   120     3    87.2    82.8     4.4   25.12  101.00    9.43    0.00   23.98   25.12   90.45   32.88    0.00    3.23     4.3     5.8    6.42    7.03    8.01    8.87    9.52    9.94    0.83    0.46    0.46    0.43    0.29    0.24    0.20    0.20    0.20    4.06    4.76    6.22    6.85    7.33    8.25    9.07    9.72   10.13
 2016 217    64   120     3    85.5    81.2     4.2   25.53  101.40    9.53    0.00   24.06   25.53   91.40   33.90    0.00    3.20     4.1     5.4    6.14    6.89    7.95    8.83    9.50    9.93    0.71    0.47    0.46    0.43    0.30    0.24    0.20    0.20    0.20    3.91    4.53    5.85    6.57    7.19    8.19    9.02    9.70   10.13
 2016 218    65   120     3    84.4    80.4     4.0   25.95  101.87    9.57    0.00   24.15   25.95   92.76   33.90    0.00    2.30     3.5     5.3    6.65    7.17    8.06    8.84    9.47    9.90    0.55    0.48    0.46    0.43    0.28    0.23    0.20    0.20    0.20    2.86    4.01    5.77    7.08    7.46    8.29    9.04    9.67   10.09
 2016 219    66   120     3    81.9    77.9     4.0   26.36  102.16    9.76    0.00   24.25   26.36   93.05   36.18    0.00    2.36     3.4     4.9    6.14    6.82    7.79    8.70    9.42    9.90    0.48    0.49    0.47    0.44    0.30    0.24    0.20    0.20    0.20    2.84    3.86    5.35    6.58    7.12    8.03    8.89    9.61   10.10
 2016 220    67   120     3    80.3    76.4     3.9   26.78  102.56    9.90    0.00   24.35   26.78   93.67   37.38    0.00    2.41     3.2     4.6    5.81    6.61    7.69    8.63    9.37    9.89    0.40    0.50    0.47    0.45    0.31    0.24    0.20    0.20    0.20    2.82    3.70    5.05    6.25    6.92    7.93    8.83    9.57   10.09
 2016 221    68   120     3    79.8    76.0     3.8   27.22  102.99    9.97    0.00   24.46   27.22   94.05   37.76    0.00    2.54     3.1     4.4    5.64    6.53    7.68    8.63    9.38    9.90    0.32    0.50    0.47    0.45    0.31    0.23    0.20    0.20    0.20    2.87    3.65    4.90    6.09    6.85    7.91    8.82    9.58   10.10
 2016 222    69   120     3    79.9    76.3     3.6   27.66  103.48   10.01    0.00   24.56   27.66   94.20   37.76    0.00    2.01     3.0     4.7    6.02    6.77    7.77    8.60    9.34    9.85    0.25    0.50    0.46    0.44    0.29    0.22    0.20    0.20    0.20    2.26    3.52    5.19    6.46    7.07    7.99    8.80    9.53   10.05
 2016 223    70   120     3    78.1    74.5     3.6   28.10  103.83   10.22    0.00   24.67   28.10   94.20   39.66    0.00    2.09     2.9     4.4    5.62    6.50    7.56    8.52    9.32    9.88    0.20    0.51    0.47    0.45    0.30    0.22    0.20    0.20    0.20    2.28    3.42    4.86    6.07    6.81    7.78    8.71    9.51   10.08
