*SOIL WATER DAILY OUTPUT FILE

*DSSAT Cropping System Model Ver. 4.7.5.007 -  MAR 01, 2026 21:01:02
!                                                                                                 Soil water content (mm3/mm3) by soil depth (cm):
!                                                                                                0-10   10-20   20-30   30-40   40-50   50-60   60-70   70-80   80-90
@YEAR DOY   DAS  SWTD  SWXD   ROFC   DRNC   PREC  IR#C  IRRC  DTWT    MWTD  TDFD  TDFC   ROFD    SW1D    SW2D    SW3D    SW4D    SW5D    SW6D    SW7D    SW8D    SW9D
 2015 102     0   353    88      0      0      0     0     0     0    0.00   0.0   0.0   0.00   0.377   0.387   0.380   0.398   0.398   0.398   0.398   0.398   0.398
 2015 103     1   375   110      0      0      5     1    20    45    0.00   0.0   0.0   0.05   0.434   0.421   0.425   0.438   0.436   0.407   0.398   0.396   0.395
 2015 104     2   379   113      1      0     13     1    20    90    0.00   0.0   0.0   0.71   0.426   0.419   0.425   0.438   0.439   0.437   0.409   0.399   0.394
 2015 105     3   376   110      1      0     13     1    20    90    0.00   0.0   0.0   0.00   0.411   0.415   0.418   0.435   0.435   0.434   0.414   0.401   0.394
 2015 106     4   385   119      4      0     29     1    20    89    0.00   0.0   0.0   3.17   0.424   0.418   0.425   0.438   0.438   0.439   0.439   0.424   0.402
 2015 107     5   382   116      4      1     31     1    20    88    0.00   0.0   0.0   0.00   0.411   0.415   0.417   0.435   0.435   0.436   0.437   0.426   0.408
 2015 108     6   389   124      4      9     31     2    40    83    0.00   0.0   0.0   0.00   0.422   0.417   0.424   0.437   0.438   0.438   0.439   0.439   0.439
 2015 109     7   375   110      4     20     31     2    40    86    0.00   0.0   0.0   0.00   0.404   0.404   0.407   0.422   0.422   0.423   0.423   0.423   0.423
 2015 110     8   379   114      5     21     40     2    40    86    0.00   0.0   0.0   0.80   0.434   0.421   0.417   0.423   0.420   0.420   0.420   0.420   0.420
 2015 111     9   383   117      6     22     50     2    40    87    0.00   0.0   0.0   1.29   0.423   0.417   0.424   0.438   0.438   0.431   0.421   0.419   0.418
 2015 112    10   371   105      6     31     50     2    40    88    0.00   0.0   0.0   0.00   0.404   0.404   0.407   0.422   0.423   0.417   0.411   0.409   0.409
 2015 113    11   386   121      6     31     50     3    60    88    0.00   0.0   0.0   0.00   0.433   0.420   0.425   0.438   0.438   0.438   0.438   0.424   0.411
 2015 114    12   382   117      6     32     51     3    60    88    0.00   0.0   0.0   0.00   0.414   0.416   0.417   0.434   0.434   0.434   0.434   0.425   0.412
 2015 115    13   370   104      6     41     51     3    60    89    0.00   0.0   0.0   0.00   0.398   0.402   0.402   0.420   0.420   0.419   0.419   0.413   0.405
 2015 116    14   372   106      6     41     57     3    60    89    0.00   0.0   0.0   0.24   0.430   0.408   0.398   0.416   0.416   0.416   0.416   0.411   0.404
 2015 117    15   367   102      6     42     57     3    60    89    0.00   0.0   0.0   0.00   0.410   0.406   0.396   0.413   0.413   0.412   0.412   0.409   0.403
 2015 118    16   390   124      9     43     69     4    80    85    0.00   0.0   0.0   3.00   0.440   0.415   0.423   0.437   0.438   0.438   0.439   0.439   0.428
 2015 119    17   374   109      9     54     69     4    80    87    0.00   0.0   0.0   0.00   0.414   0.400   0.404   0.421   0.422   0.422   0.423   0.423   0.416
 2015 120    18   381   115      9     55     69     5    91    87    0.00   0.0   0.0   0.00   0.424   0.418   0.424   0.437   0.425   0.422   0.421   0.421   0.416
 2015 121    19   369   103      9     63     69     5    91    89    0.00   0.0   0.0   0.00   0.403   0.402   0.406   0.421   0.413   0.411   0.411   0.411   0.407
 2015 122    20   360    94      9     68     69     5    91    90    0.00   0.0   0.0   0.00   0.388   0.392   0.392   0.410   0.405   0.404   0.403   0.403   0.401
 2015 123    21   354    88      9     70     69     5    91    90    0.00   0.0   0.0   0.00   0.377   0.385   0.383   0.402   0.399   0.399   0.398   0.398   0.397
 2015 124    22   361    95      9     70     69     6   100    90    0.00   0.0   0.0   0.00   0.434   0.403   0.385   0.401   0.398   0.397   0.396   0.396   0.395
 2015 125    23   363    97     10     70     75     6   100    90    0.00   0.0   0.0   0.30   0.424   0.418   0.401   0.405   0.399   0.397   0.395   0.395   0.393
 2015 126    24   377   112     16     70     98     6   100    90    0.00   0.0   0.0   6.37   0.430   0.420   0.426   0.440   0.440   0.425   0.403   0.397   0.393
 2015 127    25   374   108     16     70     98     6   100    90    0.00   0.0   0.0   0.00   0.411   0.414   0.417   0.436   0.436   0.426   0.408   0.398   0.391
 2015 128    26   365    99     16     75     98     6   100    90    0.00   0.0   0.0   0.00   0.394   0.400   0.401   0.421   0.422   0.415   0.402   0.395   0.395
 2015 129    27   358    93     16     78     98     6   100    90    0.00   0.0   0.0   0.00   0.382   0.391   0.389   0.410   0.412   0.408   0.399   0.396   0.396
 2015 130    28   353    88     16     80     98     6   100    90    0.00   0.0   0.0   0.00   0.373   0.384   0.381   0.403   0.405   0.402   0.396   0.395   0.395
 2015 131    29   375   110     27     80    132     6   100    90    0.01   0.0   0.0  11.12   0.435   0.422   0.427   0.440   0.428   0.409   0.400   0.396   0.395
 2015 132    30   367   102     27     86    132     6   100    90    0.01   0.0   0.0   0.00   0.413   0.408   0.410   0.425   0.418   0.405   0.399   0.397   0.397
 2015 133    31   365    99     27     86    133     6   100    90    0.01   0.0   0.0   0.00   0.399   0.404   0.403   0.423   0.418   0.408   0.400   0.397   0.395
 2015 134    32   373   107     27     86    133     7   111    90    0.01   0.0   0.0   0.00   0.430   0.419   0.424   0.430   0.421   0.411   0.402   0.398   0.394
 2015 135    33   383   118     27     86    133     8   124    90    0.01   0.0   0.0   0.00   0.428   0.418   0.425   0.439   0.440   0.441   0.435   0.409   0.398
 2015 136    34   372   106     27     95    133     8   124    90    0.02   0.0   0.0   0.00   0.407   0.404   0.408   0.424   0.426   0.427   0.423   0.404   0.397
 2015 137    35   363    97     27    100    133     8   124    90    0.02   0.0   0.0   0.00   0.389   0.392   0.393   0.412   0.415   0.416   0.414   0.401   0.396
 2015 138    36   357    91     27    103    133     8   124    90    0.02   0.0   0.0   0.00   0.376   0.385   0.383   0.405   0.408   0.409   0.407   0.399   0.396
 2015 139    37   363    97     27    103    134     9   132    90    0.04   0.0   0.0   0.00   0.430   0.400   0.382   0.402   0.405   0.407   0.406   0.400   0.397
 2015 140    38   360    95     27    103    134     9   132    90    0.05   0.0   0.0   0.00   0.410   0.401   0.384   0.400   0.402   0.405   0.405   0.401   0.397
 2015 141    39   355    90     27    105    134     9   132    90    0.06   0.0   0.0   0.00   0.388   0.389   0.378   0.398   0.399   0.401   0.401   0.399   0.396
 2015 142    40   371   105     27    105    134    10   151    90    0.05   0.0   0.0   0.00   0.426   0.419   0.425   0.434   0.409   0.403   0.401   0.399   0.395
 2015 143    41   363    98     27    110    134    10   151    90    0.05   0.0   0.0   0.00   0.404   0.403   0.406   0.420   0.404   0.400   0.399   0.398   0.397
 2015 144    42   357    91     27    113    134    10   151    90    0.05   0.0   0.0   0.00   0.386   0.391   0.392   0.410   0.400   0.399   0.398   0.397   0.397
 2015 145    43   352    87     27    114    134    10   151    90    0.05   0.0   0.0   0.00   0.372   0.383   0.381   0.402   0.398   0.397   0.396   0.396   0.396
 2015 146    44   375   110     27    114    134    11   178    90    0.05   0.0   0.0   0.00   0.428   0.416   0.421   0.437   0.439   0.419   0.402   0.397   0.395
 2015 147    45   366   100     27    120    134    11   178    90    0.05   0.0   0.0   0.00   0.404   0.400   0.403   0.422   0.425   0.411   0.400   0.397   0.397
 2015 148    46   359    94     27    124    134    11   178    90    0.05   0.0   0.0   0.00   0.387   0.391   0.390   0.411   0.415   0.406   0.398   0.397   0.397
 2015 149    47   354    89     27    125    134    11   178    90    0.05   0.0   0.0   0.00   0.374   0.384   0.381   0.404   0.408   0.402   0.397   0.397   0.397
 2015 150    48   350    85     27    125    134    11   178    90    0.05   0.0   0.0   0.00   0.364   0.377   0.375   0.398   0.402   0.399   0.396   0.396   0.396
 2015 151    49   347    82     27    125    134    11   178    90    0.05   0.0   0.0   0.00   0.358   0.371   0.369   0.394   0.398   0.398   0.396   0.395   0.395
 2015 152    50   361    95     27    125    134    12   194    90    0.04   0.0   0.0   0.00   0.432   0.419   0.387   0.396   0.396   0.396   0.394   0.393   0.393
 2015 153    51   356    91     27    126    134    12   194    90    0.04   0.0   0.0   0.00   0.405   0.400   0.380   0.396   0.396   0.396   0.396   0.396   0.396
 2015 154    52   353    87     27    126    134    12   194    90    0.04   0.0   0.0   0.00   0.385   0.389   0.377   0.396   0.396   0.397   0.397   0.397   0.397
 2015 155    53   349    84     27    126    134    12   194    90    0.04   0.0   0.0   0.00   0.370   0.382   0.374   0.393   0.394   0.395   0.395   0.395   0.395
 2015 156    54   364    99     27    126    134    13   212    90    0.04   0.0   0.0   0.00   0.429   0.418   0.420   0.405   0.396   0.393   0.393   0.393   0.393
 2015 157    55   359    93     27    128    134    13   212    90    0.05   0.0   0.0   0.00   0.404   0.400   0.402   0.400   0.396   0.396   0.396   0.396   0.396
 2015 158    56   354    89     27    129    134    13   212    90    0.05   0.0   0.0   0.00   0.386   0.390   0.388   0.397   0.396   0.396   0.396   0.396   0.396
 2015 159    57   351    85     27    129    134    13   212    90    0.05   0.0   0.0   0.00   0.373   0.383   0.380   0.395   0.396   0.396   0.396   0.394   0.394
 2015 160    58   370   105     27    129    134    14   235    90    0.04   0.0   0.0   0.00   0.429   0.418   0.423   0.438   0.415   0.401   0.396   0.393   0.393
 2015 161    59   364    98     27    133    134    14   235    90    0.04   0.0   0.0   0.00   0.407   0.403   0.406   0.423   0.408   0.399   0.397   0.397   0.397
 2015 162    60   357    92     27    136    134    14   235    90    0.04   0.0   0.0   0.00   0.389   0.392   0.392   0.412   0.403   0.397   0.396   0.396   0.396
 2015 163    61   376   111     27    136    134    15   257    90    0.04   0.0   0.0   0.00   0.429   0.419   0.424   0.438   0.439   0.420   0.402   0.397   0.395
 2015 164    62   366   101     27    143    134    15   257    90    0.03   0.0   0.0   0.00   0.405   0.403   0.405   0.422   0.424   0.411   0.399   0.396   0.396
 2015 165    63   359    94     27    146    134    15   257    90    0.03   0.0   0.0   0.00   0.389   0.392   0.392   0.411   0.414   0.405   0.397   0.396   0.396
 2015 166    64   354    89     27    148    134    15   257    90    0.05   0.0   0.0   0.00   0.377   0.386   0.383   0.403   0.406   0.400   0.395   0.395   0.395
 2015 167    65   362    97     27    148    134    16   268    90    0.06   0.0   0.0   0.00   0.431   0.416   0.388   0.402   0.403   0.400   0.395   0.393   0.393
 2015 168    66   358    92     27    150    134    16   268    90    0.06   0.0   0.0   0.00   0.410   0.403   0.382   0.398   0.399   0.397   0.396   0.396   0.396
 2015 169    67   354    88     27    150    134    16   268    90    0.06   0.0   0.0   0.00   0.394   0.394   0.379   0.395   0.396   0.395   0.395   0.395   0.395
 2015 170    68   351    86     27    150    134    16   268    90    0.05   0.0   0.0   0.00   0.384   0.388   0.377   0.395   0.395   0.394   0.393   0.393   0.393
 2015 171    69   349    83     27    150    134    16   268    90    0.04   0.0   0.0   0.00   0.378   0.385   0.376   0.392   0.393   0.392   0.390   0.390   0.390
 2015 172    70   356    90     27    150    134    17   278    90    0.04   0.0   0.0   0.00   0.434   0.410   0.382   0.392   0.390   0.389   0.387   0.387   0.387

*DSSAT Cropping System Model Ver. 4.7.5.007 -  MAR 01, 2026 21:01:02
!                                                                                                 Soil water content (mm3/mm3) by soil depth (cm):
!                                                                                                0-10   10-20   20-30   30-40   40-50   50-60   60-70   70-80   80-90
@YEAR DOY   DAS  SWTD  SWXD   ROFC   DRNC   PREC  IR#C  IRRC  DTWT    MWTD  TDFD  TDFC   ROFD    SW1D    SW2D    SW3D    SW4D    SW5D    SW6D    SW7D    SW8D    SW9D
 2015 125     0   353    88      0      0      0     0     0     0    0.00   0.0   0.0   0.00   0.377   0.387   0.380   0.398   0.398   0.398   0.398   0.398   0.398
 2015 126     1   383   118     11      0     23     1    20    45    0.00   0.0   0.0  10.90   0.457   0.422   0.427   0.439   0.439   0.439   0.412   0.401   0.398
 2015 127     2   379   114     11      0     24     1    20    90    0.00   0.0   0.0   0.00   0.422   0.417   0.423   0.437   0.436   0.436   0.418   0.404   0.399
 2015 128     3   368   103     11      8     24     1    20    90    0.00   0.0   0.0   0.00   0.405   0.405   0.406   0.422   0.421   0.421   0.408   0.399   0.395
 2015 129     4   361    95     11     12     24     1    20    90    0.00   0.0   0.0   0.00   0.393   0.396   0.395   0.411   0.411   0.411   0.402   0.396   0.395
 2015 130     5   378   112     11     12     24     2    40    90    0.00   0.0   0.0   0.00   0.434   0.421   0.425   0.438   0.438   0.426   0.407   0.397   0.391
 2015 131     6   393   127     24     17     58     2    40    83    0.00   0.0   0.0  12.71   0.434   0.422   0.428   0.440   0.441   0.441   0.441   0.441   0.441
 2015 132     7   379   113     24     29     58     2    40    86    0.00   0.0   0.0   0.00   0.414   0.409   0.411   0.425   0.425   0.425   0.425   0.426   0.426
 2015 133     8   375   109     24     30     58     2    40    86    0.00   0.0   0.0   0.00   0.402   0.407   0.406   0.423   0.422   0.422   0.422   0.422   0.423
 2015 134     9   365   100     24     37     58     2    40    88    0.00   0.0   0.0   0.00   0.391   0.397   0.394   0.412   0.411   0.411   0.412   0.412   0.412
 2015 135    10   382   116     24     37     58     3    60    88    0.00   0.0   0.0   0.00   0.434   0.421   0.426   0.438   0.438   0.427   0.414   0.410   0.409
 2015 136    11   371   105     24     46     58     3    60    89    0.00   0.0   0.0   0.00   0.414   0.408   0.409   0.423   0.423   0.415   0.406   0.404   0.403
 2015 137    12   362    96     24     51     58     3    60    90    0.00   0.0   0.0   0.00   0.398   0.397   0.396   0.412   0.412   0.407   0.400   0.399   0.398
 2015 138    13   356    91     24     54     58     3    60    90    0.00   0.0   0.0   0.00   0.387   0.390   0.388   0.404   0.404   0.401   0.397   0.395   0.395
 2015 139    14   363    97     24     54     59     4    69    90    0.00   0.0   0.0   0.00   0.433   0.420   0.393   0.404   0.402   0.399   0.395   0.392   0.391
 2015 140    15   360    95     24     54     60     4    69    90    0.00   0.0   0.0   0.00   0.418   0.417   0.395   0.404   0.400   0.398   0.392   0.389   0.388
 2015 141    16   356    91     24     54     60     4    69    90    0.00   0.0   0.0   0.00   0.400   0.403   0.387   0.399   0.397   0.395   0.395   0.395   0.395
 2015 142    17   373   108     24     54     60     5    89    90    0.00   0.0   0.0   0.00   0.432   0.420   0.425   0.438   0.433   0.404   0.395   0.391   0.391
 2015 143    18   365   100     24     59     60     5    89    90    0.00   0.0   0.0   0.00   0.411   0.406   0.408   0.422   0.419   0.399   0.395   0.395   0.395
 2015 144    19   358    93     24     62     60     5    89    90    0.00   0.0   0.0   0.00   0.395   0.395   0.394   0.411   0.409   0.396   0.395   0.395   0.395
 2015 145    20   354    88     24     62     60     5    89    90    0.00   0.0   0.0   0.00   0.382   0.387   0.385   0.403   0.402   0.395   0.395   0.395   0.395
 2015 146    21   350    85     24     62     60     5    89    90    0.00   0.0   0.0   0.00   0.375   0.382   0.379   0.398   0.398   0.395   0.394   0.391   0.391
 2015 147    22   361    95     24     62     60     6   103    90    0.00   0.0   0.0   0.00   0.432   0.419   0.400   0.402   0.397   0.391   0.391   0.388   0.388
 2015 148    23   357    92     24     62     60     6   103    90    0.00   0.0   0.0   0.00   0.410   0.404   0.389   0.397   0.395   0.395   0.395   0.395   0.393
 2015 149    24   363    97     24     62     60     7   112    90    0.00   0.0   0.0   0.00   0.431   0.419   0.412   0.405   0.396   0.392   0.392   0.392   0.390
 2015 150    25   358    92     24     63     60     7   112    90    0.00   0.0   0.0   0.00   0.408   0.403   0.397   0.399   0.395   0.395   0.395   0.395   0.395
 2015 151    26   354    88     24     63     60     7   112    90    0.00   0.0   0.0   0.00   0.390   0.392   0.386   0.395   0.395   0.395   0.395   0.395   0.395
 2015 152    27   358    93     24     63     60     8   120    90    0.00   0.0   0.0   0.00   0.430   0.408   0.388   0.397   0.391   0.392   0.392   0.392   0.392
 2015 153    28   354    89     24     63     60     8   120    90    0.00   0.0   0.0   0.00   0.406   0.395   0.381   0.395   0.395   0.395   0.395   0.393   0.389
 2015 154    29   351    85     24     63     60     8   120    90    0.00   0.0   0.0   0.00   0.388   0.387   0.377   0.395   0.395   0.395   0.394   0.390   0.386
 2015 155    30   347    82     24     63     60     8   120    90    0.00   0.0   0.0   0.00   0.375   0.382   0.376   0.392   0.392   0.393   0.391   0.387   0.383
 2015 156    31   357    91     24     63     60     9   133    90    0.00   0.0   0.0   0.00   0.430   0.419   0.390   0.395   0.389   0.390   0.388   0.385   0.381
 2015 157    32   353    87     24     63     60     9   133    90    0.00   0.0   0.0   0.00   0.405   0.401   0.382   0.395   0.395   0.395   0.394   0.382   0.378
 2015 158    33   349    84     24     63     60     9   133    90    0.00   0.0   0.0   0.00   0.386   0.390   0.378   0.395   0.395   0.396   0.396   0.380   0.376
 2015 159    34   346    80     24     63     60     9   133    90    0.00   0.0   0.0   0.00   0.373   0.383   0.375   0.394   0.393   0.393   0.393   0.378   0.374
 2015 160    35   360    95     24     63     60    10   151    90    0.01   0.0   0.0   0.00   0.429   0.417   0.423   0.406   0.395   0.391   0.391   0.376   0.372
 2015 161    36   358    92     24     63     60    10   151    90    0.01   0.0   0.0   0.00   0.407   0.403   0.406   0.402   0.396   0.397   0.397   0.397   0.372
 2015 162    37   354    89     24     63     60    10   151    90    0.01   0.0   0.0   0.00   0.389   0.391   0.392   0.398   0.396   0.396   0.396   0.396   0.387
 2015 163    38   367   101     24     63     60    11   167    90    0.01   0.0   0.0   0.00   0.428   0.419   0.423   0.424   0.403   0.397   0.394   0.394   0.386
 2015 164    39   361    95     24     66     60    11   167    90    0.02   0.0   0.0   0.00   0.404   0.402   0.405   0.413   0.400   0.396   0.396   0.396   0.396
 2015 165    40   356    90     24     68     60    11   167    90    0.02   0.0   0.0   0.00   0.387   0.391   0.391   0.405   0.398   0.396   0.396   0.396   0.396
 2015 166    41   352    86     24     68     60    11   167    90    0.03   0.0   0.0   0.00   0.374   0.384   0.381   0.400   0.396   0.396   0.396   0.396   0.396
 2015 167    42   375   109     24     68     60    12   193    90    0.03   0.0   0.0   0.00   0.430   0.418   0.423   0.438   0.439   0.410   0.399   0.396   0.395
 2015 168    43   366   101     24     74     60    12   193    90    0.03   0.0   0.0   0.00   0.407   0.403   0.406   0.423   0.425   0.405   0.398   0.397   0.397
 2015 169    44   359    94     24     78     60    12   193    90    0.03   0.0   0.0   0.00   0.390   0.392   0.393   0.412   0.415   0.401   0.396   0.396   0.396
 2015 170    45   376   111     24     78     60    13   213    90    0.03   0.0   0.0   0.00   0.428   0.419   0.424   0.438   0.439   0.419   0.402   0.397   0.395
 2015 171    46   367   101     24     84     60    13   213    90    0.03   0.0   0.0   0.00   0.406   0.403   0.406   0.423   0.425   0.411   0.400   0.397   0.397
 2015 172    47   360    94     24     88     60    13   213    90    0.03   0.0   0.0   0.00   0.389   0.393   0.393   0.412   0.415   0.406   0.398   0.396   0.396
 2015 173    48   355    90     24     90     60    13   213    90    0.03   0.0   0.0   0.00   0.377   0.386   0.384   0.405   0.408   0.402   0.397   0.397   0.397
 2015 174    49   375   109     24     90     60    14   236    90    0.03   0.0   0.0   0.00   0.429   0.418   0.423   0.438   0.437   0.412   0.400   0.396   0.395
 2015 175    50   366   101     24     96     60    14   236    90    0.03   0.0   0.0   0.00   0.407   0.403   0.406   0.423   0.424   0.406   0.399   0.397   0.397
 2015 176    51   359    94     24    100     60    14   236    90    0.03   0.0   0.0   0.00   0.389   0.392   0.392   0.412   0.414   0.402   0.397   0.396   0.396
 2015 177    52   369   104     24    100     60    15   249    90    0.03   0.0   0.0   0.00   0.429   0.420   0.418   0.418   0.414   0.405   0.399   0.395   0.395
 2015 178    53   362    96     24    104     60    15   249    90    0.03   0.0   0.0   0.00   0.406   0.403   0.402   0.409   0.407   0.401   0.397   0.396   0.396
 2015 179    54   357    91     24    106     60    15   249    90    0.03   0.0   0.0   0.00   0.389   0.393   0.390   0.403   0.402   0.399   0.396   0.396   0.396
 2015 180    55   352    87     24    107     60    15   249    90    0.03   0.0   0.0   0.00   0.376   0.385   0.381   0.398   0.399   0.397   0.396   0.396   0.396
 2015 181    56   374   109     24    107     60    16   274    90    0.03   0.0   0.0   0.00   0.429   0.418   0.423   0.438   0.437   0.408   0.398   0.395   0.394
 2015 182    57   365   100     24    113     60    16   274    90    0.03   0.0   0.0   0.00   0.406   0.402   0.405   0.423   0.423   0.403   0.397   0.396   0.396
 2015 183    58   359    93     24    116     60    16   274    90    0.03   0.0   0.0   0.00   0.389   0.392   0.392   0.412   0.413   0.400   0.396   0.396   0.396
 2015 184    59   367   102     24    116     60    17   286    90    0.03   0.0   0.0   0.00   0.428   0.419   0.410   0.415   0.412   0.403   0.397   0.395   0.395
 2015 185    60   360    95     24    120     60    17   286    90    0.03   0.0   0.0   0.00   0.404   0.402   0.395   0.407   0.406   0.399   0.396   0.396   0.396
 2015 186    61   356    90     24    121     60    17   286    90    0.03   0.0   0.0   0.00   0.388   0.392   0.386   0.402   0.402   0.398   0.396   0.396   0.396
 2015 187    62   353    88     24    122     60    17   286    90    0.03   0.0   0.0   0.00   0.378   0.387   0.381   0.398   0.399   0.397   0.397   0.397   0.397
 2015 188    63   352    86     24    122     60    17   286    90    0.03   0.0   0.0   0.00   0.375   0.385   0.379   0.397   0.398   0.396   0.396   0.396   0.396
 2015 189    64   353    88     24    122     61    17   286    90    0.17   0.0   0.0   0.00   0.387   0.388   0.379   0.397   0.398   0.396   0.396   0.396   0.396
 2015 190    65   351    85     24    122     61    17   286    90    0.15   0.0   0.0   0.00   0.376   0.384   0.377   0.396   0.396   0.395   0.394   0.394   0.394
 2015 191    66   360    95     24    122     61    18   299    90    0.14   0.0   0.0   0.00   0.428   0.417   0.392   0.398   0.395   0.393   0.392   0.392   0.392
 2015 192    67   356    91     24    122     61    18   299    90    0.12   0.0   0.0   0.00   0.404   0.401   0.384   0.395   0.396   0.396   0.396   0.396   0.396
 2015 193    68   353    88     24    122     61    18   299    90    0.13   0.0   0.0   0.00   0.388   0.391   0.379   0.395   0.395   0.396   0.396   0.396   0.395
 2015 194    69   372   107     24    122     61    19   322    90    0.12   0.0   0.0   0.00   0.429   0.418   0.424   0.438   0.429   0.403   0.396   0.393   0.392
 2015 195    70   364    98     24    127     61    19   322    90    0.11   0.0   0.0   0.00   0.407   0.403   0.406   0.422   0.416   0.399   0.395   0.395   0.395
 2015 196    71   358    92     24    129     61    19   322    90    0.10   0.0   0.0   0.00   0.392   0.394   0.394   0.411   0.407   0.396   0.395   0.395   0.395
 2015 197    72   354    89     24    130     61    19   322    90    0.09   0.0   0.0   0.00   0.383   0.388   0.386   0.403   0.401   0.395   0.395   0.395   0.395
 2015 198    73   370   104     24    130     61    20   341    90    0.08   0.0   0.0   0.00   0.433   0.420   0.425   0.437   0.410   0.397   0.393   0.392   0.392
 2015 199    74   363    98     24    134     61    20   341    90    0.06   0.0   0.0   0.00   0.412   0.406   0.408   0.422   0.403   0.395   0.395   0.395   0.395

*DSSAT Cropping System Model Ver. 4.7.5.007 -  MAR 01, 2026 21:01:02
!                                                                                                 Soil water content (mm3/mm3) by soil depth (cm):
!                                                                                                0-10   10-20   20-30   30-40   40-50   50-60   60-70   70-80   80-90
@YEAR DOY   DAS  SWTD  SWXD   ROFC   DRNC   PREC  IR#C  IRRC  DTWT    MWTD  TDFD  TDFC   ROFD    SW1D    SW2D    SW3D    SW4D    SW5D    SW6D    SW7D    SW8D    SW9D
 2015 147     0   353    88      0      0      0     0     0     0    0.00   0.0   0.0   0.00   0.377   0.387   0.380   0.398   0.398   0.398   0.398   0.398   0.398
 2015 148     1   370   105      0      0      0     1    20    45    0.00   0.0   0.0   0.00   0.434   0.421   0.425   0.432   0.406   0.398   0.396   0.395   0.395
 2015 149     2   362    97      0      4      0     1    20    90    0.00   0.0   0.0   0.00   0.413   0.407   0.408   0.418   0.400   0.395   0.395   0.395   0.395
 2015 150     3   358    92      0      6      0     1    20    90    0.00   0.0   0.0   0.00   0.399   0.398   0.396   0.408   0.397   0.395   0.395   0.395   0.395
 2015 151     4   354    89      0      7      0     1    20    90    0.00   0.0   0.0   0.00   0.389   0.391   0.388   0.402   0.395   0.395   0.395   0.395   0.395
 2015 152     5   351    86      0      7      0     1    20    90    0.00   0.0   0.0   0.00   0.382   0.386   0.382   0.397   0.395   0.395   0.393   0.391   0.391
 2015 153     6   348    83      0      7      0     1    20    90    0.00   0.0   0.0   0.00   0.377   0.383   0.379   0.395   0.392   0.391   0.390   0.388   0.388
 2015 154     7   347    82      0      7      0     1    20    90    0.00   0.0   0.0   0.00   0.369   0.382   0.378   0.394   0.391   0.391   0.389   0.388   0.388
 2015 155     8   364    99      0      7      0     2    40    90    0.00   0.0   0.0   0.00   0.434   0.420   0.425   0.419   0.398   0.389   0.386   0.385   0.385
 2015 156     9   361    95      0      7      0     2    40    90    0.00   0.0   0.0   0.00   0.412   0.406   0.408   0.409   0.395   0.395   0.395   0.395   0.394
 2015 157    10   357    91      0      8      0     2    40    90    0.00   0.0   0.0   0.00   0.397   0.396   0.396   0.403   0.395   0.395   0.395   0.395   0.395
 2015 158    11   353    88      0      8      0     2    40    90    0.00   0.0   0.0   0.00   0.387   0.390   0.387   0.398   0.395   0.395   0.395   0.395   0.393
 2015 159    12   350    85      0      8      0     2    40    90    0.00   0.0   0.0   0.00   0.379   0.386   0.381   0.395   0.395   0.393   0.391   0.391   0.389
 2015 160    13   367   101      0      8      0     3    60    90    0.00   0.0   0.0   0.00   0.433   0.420   0.425   0.431   0.403   0.393   0.388   0.388   0.386
 2015 161    14   362    97      0      9      0     3    60    90    0.00   0.0   0.0   0.00   0.412   0.406   0.408   0.418   0.399   0.395   0.395   0.395   0.395
 2015 162    15   357    92      0     11      0     3    60    90    0.00   0.0   0.0   0.00   0.397   0.396   0.395   0.408   0.395   0.395   0.395   0.395   0.395
 2015 163    16   354    88      0     11      0     3    60    90    0.00   0.0   0.0   0.00   0.386   0.389   0.387   0.402   0.395   0.395   0.395   0.395   0.395
 2015 164    17   350    85      0     11      0     3    60    90    0.00   0.0   0.0   0.00   0.377   0.385   0.380   0.397   0.395   0.394   0.391   0.391   0.391
 2015 165    18   367   101      0     11      0     4    80    90    0.00   0.0   0.0   0.00   0.432   0.419   0.425   0.430   0.403   0.394   0.388   0.388   0.388
 2015 166    19   361    96      0     13      0     4    80    90    0.00   0.0   0.0   0.00   0.410   0.404   0.406   0.416   0.398   0.395   0.395   0.395   0.395
 2015 167    20   356    91      0     14      0     4    80    90    0.00   0.0   0.0   0.00   0.395   0.395   0.394   0.407   0.395   0.395   0.395   0.395   0.395
 2015 168    21   353    88      0     14      0     4    80    90    0.00   0.0   0.0   0.00   0.385   0.389   0.386   0.401   0.395   0.395   0.395   0.395   0.393
 2015 169    22   350    85      0     14      0     4    80    90    0.00   0.0   0.0   0.00   0.377   0.384   0.380   0.397   0.395   0.394   0.392   0.392   0.390
 2015 170    23   347    81      0     14      0     4    80    90    0.00   0.0   0.0   0.00   0.371   0.380   0.376   0.393   0.392   0.391   0.389   0.389   0.387
 2015 171    24   345    80      0     14      0     4    80    90    0.00   0.0   0.0   0.00   0.362   0.377   0.374   0.393   0.391   0.391   0.389   0.389   0.387
 2015 172    25   344    78      0     14      0     4    80    90    0.00   0.0   0.0   0.00   0.353   0.375   0.373   0.392   0.391   0.391   0.389   0.389   0.387
 2015 173    26   357    91      0     14      0     5    96    90    0.00   0.0   0.0   0.00   0.433   0.420   0.389   0.395   0.388   0.388   0.386   0.386   0.384
 2015 174    27   353    88      0     14      0     5    96    90    0.00   0.0   0.0   0.00   0.410   0.404   0.383   0.395   0.395   0.395   0.389   0.383   0.381
 2015 175    28   351    85      0     14      0     5    96    90    0.00   0.0   0.0   0.00   0.394   0.394   0.379   0.395   0.396   0.396   0.392   0.381   0.378
 2015 176    29   347    81      0     14      0     5    96    90    0.00   0.0   0.0   0.00   0.381   0.387   0.376   0.395   0.395   0.394   0.389   0.378   0.376
 2015 177    30   366   100      0     14      0     6   118    90    0.00   0.0   0.0   0.00   0.431   0.419   0.425   0.438   0.411   0.398   0.387   0.375   0.373
 2015 178    31   363    97      0     14      0     6   118    90    0.01   0.0   0.0   0.00   0.409   0.404   0.407   0.423   0.405   0.396   0.396   0.396   0.393
 2015 179    32   358    92      0     16      0     6   118    90    0.01   0.0   0.0   0.00   0.393   0.394   0.394   0.412   0.400   0.396   0.396   0.396   0.396
 2015 180    33   353    88      0     17      0     6   118    90    0.01   0.0   0.0   0.00   0.380   0.387   0.385   0.404   0.397   0.395   0.395   0.395   0.395
 2015 181    34   369   104      0     17      0     7   137    90    0.01   0.0   0.0   0.00   0.430   0.418   0.424   0.434   0.407   0.398   0.393   0.393   0.393
 2015 182    35   362    97      0     21      0     7   137    90    0.01   0.0   0.0   0.00   0.407   0.403   0.405   0.420   0.402   0.396   0.396   0.396   0.396
 2015 183    36   357    91      0     23      0     7   137    90    0.01   0.0   0.0   0.00   0.390   0.392   0.392   0.410   0.399   0.396   0.396   0.396   0.396
 2015 184    37   364    99      0     23      0     8   148    90    0.01   0.0   0.0   0.00   0.428   0.419   0.404   0.412   0.401   0.396   0.394   0.394   0.394
 2015 185    38   358    93      0     25      0     8   148    90    0.01   0.0   0.0   0.00   0.404   0.402   0.391   0.405   0.398   0.396   0.396   0.396   0.396
 2015 186    39   355    89      0     26      0     8   148    90    0.01   0.0   0.0   0.00   0.388   0.392   0.384   0.400   0.396   0.396   0.396   0.396   0.396
 2015 187    40   352    87      0     26      0     8   148    90    0.02   0.0   0.0   0.00   0.378   0.386   0.379   0.398   0.397   0.397   0.397   0.396   0.395
 2015 188    41   351    86      0     26      0     8   148    90    0.02   0.0   0.0   0.00   0.374   0.384   0.377   0.397   0.396   0.396   0.396   0.395   0.395
 2015 189    42   353    87      0     26      2     8   148    90    0.05   0.0   0.0   0.00   0.387   0.387   0.377   0.397   0.396   0.396   0.396   0.395   0.394
 2015 190    43   350    85      0     26      2     8   148    90    0.05   0.0   0.0   0.00   0.376   0.383   0.377   0.395   0.394   0.395   0.395   0.394   0.393
 2015 191    44   369   104      0     26      2     9   171    90    0.05   0.0   0.0   0.00   0.427   0.417   0.423   0.438   0.413   0.399   0.394   0.392   0.391
 2015 192    45   362    97      0     30      2     9   171    90    0.05   0.0   0.0   0.00   0.404   0.401   0.405   0.422   0.406   0.397   0.396   0.396   0.396
 2015 193    46   357    91      0     32      2     9   171    90    0.05   0.0   0.0   0.00   0.387   0.391   0.391   0.411   0.402   0.396   0.396   0.396   0.396
 2015 194    47   375   109      0     32      2    10   193    90    0.05   0.0   0.0   0.00   0.427   0.418   0.422   0.437   0.439   0.415   0.401   0.396   0.394
 2015 195    48   365   100      0     38      2    10   193    90    0.05   0.0   0.0   0.00   0.403   0.401   0.404   0.422   0.424   0.408   0.399   0.396   0.396
 2015 196    49   358    93      0     41      2    10   193    90    0.05   0.0   0.0   0.00   0.385   0.390   0.390   0.410   0.414   0.403   0.397   0.396   0.396
 2015 197    50   354    88      0     43      2    10   193    90    0.05   0.0   0.0   0.00   0.374   0.384   0.381   0.403   0.407   0.400   0.396   0.396   0.396
 2015 198    51   368   103      0     43      2    11   211    90    0.05   0.0   0.0   0.00   0.428   0.417   0.422   0.418   0.408   0.401   0.397   0.394   0.394
 2015 199    52   361    95      0     46      2    11   211    90    0.05   0.0   0.0   0.00   0.405   0.401   0.404   0.409   0.403   0.399   0.396   0.396   0.396
 2015 200    53   356    90      0     48      2    11   211    90    0.05   0.0   0.0   0.00   0.387   0.391   0.391   0.403   0.400   0.397   0.396   0.396   0.396
 2015 201    54   351    86      0     49      2    11   211    90    0.05   0.0   0.0   0.00   0.373   0.383   0.381   0.398   0.397   0.396   0.396   0.396   0.396
 2015 202    55   348    83      0     49      2    11   211    90    0.04   0.0   0.0   0.00   0.365   0.377   0.375   0.394   0.395   0.394   0.394   0.394   0.394
 2015 203    56   346    80      0     49      2    11   211    90    0.04   0.0   0.0   0.00   0.353   0.373   0.371   0.393   0.395   0.394   0.394   0.394   0.394
 2015 204    57   366   101      0     49      2    12   234    90    0.04   0.0   0.0   0.00   0.433   0.419   0.424   0.416   0.400   0.394   0.392   0.392   0.392
 2015 205    58   360    94      0     51      2    12   234    90    0.04   0.0   0.0   0.00   0.406   0.401   0.404   0.407   0.397   0.396   0.396   0.396   0.396
 2015 206    59   355    89      0     52      2    12   234    90    0.04   0.0   0.0   0.00   0.388   0.391   0.390   0.401   0.396   0.396   0.396   0.396   0.396
 2015 207    60   351    86      0     52      2    12   234    90    0.04   0.0   0.0   0.00   0.374   0.384   0.381   0.397   0.396   0.396   0.396   0.396   0.394
 2015 208    61   347    82      0     52      2    12   234    90    0.04   0.0   0.0   0.00   0.365   0.377   0.374   0.393   0.393   0.393   0.393   0.393   0.392
 2015 209    62   369   103      0     52      2    13   258    90    0.05   0.0   0.0   0.00   0.432   0.420   0.425   0.437   0.405   0.396   0.392   0.392   0.390
 2015 210    63   362    96      0     55      2    13   258    90    0.05   0.0   0.0   0.00   0.406   0.402   0.405   0.421   0.400   0.396   0.396   0.396   0.396
 2015 211    64   356    90      0     57      2    13   258    90    0.04   0.0   0.0   0.00   0.387   0.390   0.390   0.409   0.397   0.395   0.395   0.395   0.395
 2015 212    65   351    86      0     57      2    13   258    90    0.04   0.0   0.0   0.00   0.373   0.383   0.380   0.401   0.395   0.395   0.395   0.395   0.395
 2015 213    66   368   102      0     57      2    14   278    90    0.04   0.0   0.0   0.00   0.429   0.418   0.423   0.428   0.403   0.396   0.393   0.393   0.393
 2015 214    67   360    95      0     60      2    14   278    90    0.03   0.0   0.0   0.00   0.405   0.401   0.403   0.414   0.398   0.395   0.395   0.395   0.395
 2015 215    68   355    90      0     62      2    14   278    90    0.05   0.0   0.0   0.00   0.389   0.391   0.391   0.405   0.395   0.395   0.395   0.395   0.395
 2015 216    69   371   105      0     62      2    15   298    90    0.06   0.0   0.0   0.00   0.429   0.418   0.423   0.437   0.423   0.401   0.394   0.392   0.392
 2015 217    70   363    97      0     66      2    15   298    90    0.06   0.0   0.0   0.00   0.407   0.403   0.405   0.421   0.412   0.397   0.395   0.395   0.395
 2015 218    71   357    91      0     68      2    15   298    90    0.05   0.0   0.0   0.00   0.392   0.393   0.392   0.410   0.404   0.395   0.395   0.395   0.395
 2015 219    72   353    88      0     68      2    15   298    90    0.05   0.0   0.0   0.00   0.382   0.387   0.384   0.402   0.399   0.395   0.395   0.395   0.395
 2015 220    73   370   104      0     68      2    16   318    90    0.04   0.0   0.0   0.00   0.433   0.420   0.425   0.437   0.411   0.397   0.392   0.391   0.391
 2015 221    74   363    97      0     72      2    16   318    90    0.04   0.0   0.0   0.00   0.411   0.405   0.407   0.422   0.404   0.395   0.395   0.395   0.395

*DSSAT Cropping System Model Ver. 4.7.5.007 -  MAR 01, 2026 21:01:02
!                                                                                                 Soil water content (mm3/mm3) by soil depth (cm):
!                                                                                                0-10   10-20   20-30   30-40   40-50   50-60   60-70   70-80   80-90
@YEAR DOY   DAS  SWTD  SWXD   ROFC   DRNC   PREC  IR#C  IRRC  DTWT    MWTD  TDFD  TDFC   ROFD    SW1D    SW2D    SW3D    SW4D    SW5D    SW6D    SW7D    SW8D    SW9D
 2015 160     0   353    88      0      0      0     0     0     0    0.00   0.0   0.0   0.00   0.377   0.387   0.380   0.398   0.398   0.398   0.398   0.398   0.398
 2015 161     1   370   105      0      0      0     1    20    45    0.00   0.0   0.0   0.00   0.434   0.421   0.426   0.432   0.406   0.398   0.396   0.395   0.395
 2015 162     2   363    97      0      5      0     1    20    90    0.00   0.0   0.0   0.00   0.414   0.407   0.409   0.418   0.400   0.395   0.395   0.395   0.395
 2015 163     3   358    92      0      6      0     1    20    90    0.00   0.0   0.0   0.00   0.399   0.398   0.397   0.409   0.397   0.395   0.395   0.395   0.395
 2015 164     4   354    89      0      7      0     1    20    90    0.00   0.0   0.0   0.00   0.389   0.391   0.388   0.402   0.395   0.395   0.395   0.395   0.395
 2015 165     5   371   106      0      7      0     2    40    90    0.00   0.0   0.0   0.00   0.434   0.421   0.425   0.438   0.419   0.400   0.393   0.391   0.391
 2015 166     6   364    98      0     11      0     2    40    90    0.00   0.0   0.0   0.00   0.413   0.407   0.408   0.422   0.409   0.396   0.395   0.395   0.395
 2015 167     7   358    93      0     13      0     2    40    90    0.00   0.0   0.0   0.00   0.398   0.397   0.396   0.411   0.402   0.395   0.395   0.395   0.395
 2015 168     8   355    89      0     14      0     2    40    90    0.00   0.0   0.0   0.00   0.388   0.391   0.388   0.404   0.398   0.395   0.395   0.395   0.395
 2015 169     9   352    86      0     14      0     2    40    90    0.00   0.0   0.0   0.00   0.381   0.386   0.382   0.399   0.395   0.395   0.395   0.393   0.391
 2015 170    10   368   103      0     14      0     3    60    90    0.00   0.0   0.0   0.00   0.433   0.420   0.425   0.435   0.405   0.396   0.391   0.390   0.388
 2015 171    11   362    97      0     16      0     3    60    90    0.00   0.0   0.0   0.00   0.412   0.406   0.408   0.421   0.399   0.395   0.395   0.395   0.395
 2015 172    12   357    92      0     18      0     3    60    90    0.00   0.0   0.0   0.00   0.397   0.396   0.396   0.410   0.396   0.395   0.395   0.395   0.395
 2015 173    13   354    88      0     18      0     3    60    90    0.00   0.0   0.0   0.00   0.387   0.390   0.387   0.403   0.395   0.395   0.395   0.395   0.395
 2015 174    14   351    85      0     18      0     3    60    90    0.00   0.0   0.0   0.00   0.379   0.385   0.381   0.398   0.395   0.394   0.391   0.391   0.391
 2015 175    15   368   102      0     18      0     4    80    90    0.00   0.0   0.0   0.00   0.434   0.420   0.426   0.433   0.404   0.395   0.388   0.388   0.388
 2015 176    16   362    97      0     21      0     4    80    90    0.00   0.0   0.0   0.00   0.411   0.405   0.407   0.419   0.399   0.395   0.395   0.395   0.395
 2015 177    17   367   101      0     21      0     5    88    90    0.00   0.0   0.0   0.00   0.426   0.419   0.420   0.423   0.405   0.397   0.393   0.393   0.393
 2015 178    18   361    95      0     24      0     5    88    90    0.00   0.0   0.0   0.00   0.407   0.405   0.404   0.412   0.399   0.395   0.395   0.395   0.395
 2015 179    19   356    90      0     25      0     5    88    90    0.00   0.0   0.0   0.00   0.393   0.395   0.393   0.404   0.396   0.395   0.395   0.395   0.395
 2015 180    20   352    87      0     25      0     5    88    90    0.00   0.0   0.0   0.00   0.382   0.388   0.384   0.399   0.395   0.395   0.395   0.395   0.392
 2015 181    21   361    95      0     25      0     6   100    90    0.00   0.0   0.0   0.00   0.432   0.419   0.398   0.402   0.394   0.391   0.391   0.391   0.389
 2015 182    22   357    92      0     25      0     6   100    90    0.00   0.0   0.0   0.00   0.410   0.404   0.388   0.397   0.395   0.395   0.395   0.395   0.394
 2015 183    23   369   103      0     25      0     7   115    90    0.00   0.0   0.0   0.00   0.432   0.419   0.425   0.437   0.405   0.396   0.391   0.391   0.391
 2015 184    24   362    97      0     28      0     7   115    90    0.00   0.0   0.0   0.00   0.409   0.404   0.407   0.421   0.400   0.395   0.395   0.395   0.395
 2015 185    25   357    91      0     30      0     7   115    90    0.00   0.0   0.0   0.00   0.393   0.394   0.394   0.410   0.396   0.395   0.395   0.395   0.395
 2015 186    26   354    88      0     30      0     7   115    90    0.00   0.0   0.0   0.00   0.383   0.388   0.385   0.404   0.395   0.395   0.395   0.395   0.395
 2015 187    27   366   101      0     30      0     8   130    90    0.00   0.0   0.0   0.00   0.433   0.421   0.421   0.413   0.399   0.395   0.393   0.393   0.393
 2015 188    28   362    97      0     32      0     8   130    90    0.00   0.0   0.0   0.00   0.414   0.408   0.407   0.407   0.398   0.397   0.397   0.397   0.397
 2015 189    29   364    98      0     32      2     8   130    90    0.00   0.0   0.0   0.00   0.416   0.412   0.406   0.412   0.402   0.399   0.397   0.397   0.397
 2015 190    30   358    93      0     35      2     8   130    90    0.00   0.0   0.0   0.00   0.399   0.400   0.394   0.405   0.399   0.397   0.396   0.396   0.396
 2015 191    31   374   109      0     35      2     9   150    90    0.00   0.0   0.0   0.00   0.428   0.418   0.423   0.438   0.438   0.411   0.399   0.395   0.393
 2015 192    32   365   100      0     41      2     9   150    90    0.00   0.0   0.0   0.00   0.405   0.402   0.405   0.422   0.423   0.405   0.396   0.396   0.396
 2015 193    33   359    93      0     44      2     9   150    90    0.01   0.0   0.0   0.00   0.389   0.392   0.392   0.411   0.413   0.401   0.396   0.396   0.396
 2015 194    34   363    97      0     44      2    10   158    90    0.01   0.0   0.0   0.00   0.427   0.407   0.390   0.408   0.410   0.402   0.396   0.393   0.393
 2015 195    35   357    91      0     46      2    10   158    90    0.01   0.0   0.0   0.00   0.403   0.393   0.382   0.402   0.404   0.398   0.396   0.396   0.396
 2015 196    36   353    87      0     47      2    10   158    90    0.01   0.0   0.0   0.00   0.383   0.385   0.378   0.397   0.399   0.396   0.396   0.396   0.396
 2015 197    37   357    92      0     47      2    11   166    90    0.01   0.0   0.0   0.00   0.428   0.398   0.379   0.396   0.397   0.394   0.394   0.394   0.394
 2015 198    38   354    88      0     47      2    11   166    90    0.02   0.0   0.0   0.00   0.400   0.387   0.376   0.395   0.396   0.396   0.396   0.396   0.394
 2015 199    39   350    85      0     47      2    11   166    90    0.02   0.0   0.0   0.00   0.381   0.383   0.376   0.395   0.394   0.394   0.394   0.394   0.392
 2015 200    40   347    81      0     47      2    11   166    90    0.02   0.0   0.0   0.00   0.370   0.378   0.372   0.392   0.391   0.392   0.392   0.392   0.390
 2015 201    41   351    86      0     47      2    12   174    90    0.02   0.0   0.0   0.00   0.421   0.388   0.369   0.388   0.389   0.390   0.390   0.390   0.388
 2015 202    42   348    83      0     47      2    12   174    90    0.03   0.0   0.0   0.00   0.395   0.383   0.377   0.389   0.387   0.388   0.388   0.388   0.386
 2015 203    43   344    79      0     47      2    12   174    90    0.03   0.0   0.0   0.00   0.373   0.381   0.373   0.386   0.385   0.386   0.386   0.386   0.384
 2015 204    44   358    92      0     47      2    13   191    90    0.03   0.0   0.0   0.00   0.427   0.417   0.413   0.398   0.384   0.385   0.385   0.385   0.383
 2015 205    45   354    88      0     47      2    13   191    90    0.03   0.0   0.0   0.00   0.401   0.399   0.396   0.395   0.396   0.396   0.389   0.383   0.381
 2015 206    46   350    85      0     47      2    13   191    90    0.03   0.0   0.0   0.00   0.383   0.389   0.385   0.395   0.396   0.396   0.396   0.381   0.379
 2015 207    47   346    81      0     47      2    13   191    90    0.04   0.0   0.0   0.00   0.371   0.382   0.377   0.395   0.395   0.394   0.394   0.379   0.377
 2015 208    48   354    89      0     47      2    14   203    90    0.03   0.0   0.0   0.00   0.427   0.412   0.381   0.394   0.392   0.392   0.392   0.377   0.375
 2015 209    49   352    86      0     47      2    14   203    90    0.03   0.0   0.0   0.00   0.404   0.398   0.378   0.396   0.397   0.397   0.397   0.378   0.374
 2015 210    50   348    82      0     47      2    14   203    90    0.03   0.0   0.0   0.00   0.382   0.387   0.375   0.395   0.396   0.396   0.396   0.380   0.372
 2015 211    51   344    78      0     47      2    14   203    90    0.03   0.0   0.0   0.00   0.367   0.379   0.371   0.391   0.393   0.394   0.394   0.378   0.370
 2015 212    52   360    94      0     47      2    15   223    90    0.03   0.0   0.0   0.00   0.427   0.416   0.423   0.408   0.396   0.392   0.392   0.376   0.368
 2015 213    53   356    90      0     47      2    15   223    90    0.03   0.0   0.0   0.00   0.402   0.399   0.403   0.401   0.396   0.396   0.396   0.396   0.370
 2015 214    54   352    86      0     47      2    15   223    90    0.03   0.0   0.0   0.00   0.382   0.388   0.388   0.397   0.396   0.396   0.396   0.396   0.379
 2015 215    55   348    82      0     47      2    15   223    90    0.03   0.0   0.0   0.00   0.370   0.381   0.379   0.395   0.396   0.394   0.394   0.394   0.377
 2015 216    56   364    98      0     47      2    16   243    90    0.04   0.0   0.0   0.00   0.427   0.416   0.421   0.419   0.401   0.395   0.392   0.392   0.375
 2015 217    57   359    93      0     47      2    16   243    90    0.03   0.0   0.0   0.00   0.401   0.398   0.401   0.408   0.398   0.396   0.396   0.396   0.396
 2015 218    58   353    88      0     48      2    16   243    90    0.04   0.0   0.0   0.00   0.381   0.387   0.386   0.401   0.395   0.396   0.396   0.396   0.396
 2015 219    59   349    83      0     48      2    16   243    90    0.04   0.0   0.0   0.00   0.368   0.379   0.376   0.396   0.395   0.395   0.393   0.393   0.393
 2015 220    60   365    99      0     48      2    17   263    90    0.04   0.0   0.0   0.00   0.428   0.417   0.422   0.415   0.399   0.394   0.391   0.391   0.391
 2015 221    61   358    92      0     50      2    17   263    90    0.04   0.0   0.0   0.00   0.399   0.396   0.400   0.405   0.396   0.395   0.395   0.395   0.395
 2015 222    62   352    86      0     50      2    17   263    90    0.04   0.0   0.0   0.00   0.377   0.384   0.383   0.398   0.394   0.395   0.395   0.395   0.395
 2015 223    63   368   103      0     50      2    18   283    90    0.03   0.0   0.0   0.00   0.430   0.419   0.424   0.432   0.405   0.397   0.393   0.393   0.393
 2015 224    64   360    95      0     53      2    18   283    90    0.03   0.0   0.0   0.00   0.403   0.400   0.403   0.417   0.400   0.395   0.395   0.395   0.395
 2015 225    65   355    89      0     55      2    18   283    90    0.03   0.0   0.0   0.00   0.384   0.389   0.388   0.406   0.397   0.395   0.395   0.395   0.395
 2015 226    66   351    85      0     55      2    18   283    90    0.03   0.0   0.0   0.00   0.372   0.382   0.379   0.400   0.395   0.396   0.396   0.394   0.393
 2015 227    67   366   100      0     55      2    19   303    90    0.03   0.0   0.0   0.00   0.428   0.416   0.421   0.424   0.402   0.396   0.392   0.390   0.390
 2015 228    68   360    94      0     57      2    19   303    90    0.05   0.0   0.0   0.00   0.405   0.401   0.403   0.412   0.398   0.395   0.395   0.395   0.395
 2015 229    69   354    89      0     58      2    19   303    90    0.06   0.0   0.0   0.00   0.388   0.390   0.390   0.403   0.394   0.395   0.395   0.395   0.395
 2015 230    70   370   105      0     58      2    20   323    90    0.06   0.0   0.0   0.00   0.429   0.419   0.423   0.437   0.419   0.400   0.393   0.391   0.391
 2015 231    71   363    97      0     62      2    20   323    90    0.06   0.0   0.0   0.00   0.407   0.403   0.405   0.421   0.409   0.396   0.395   0.395   0.395
 2015 232    72   357    92      0     64      2    20   323    90    0.05   0.0   0.0   0.00   0.393   0.394   0.393   0.410   0.402   0.395   0.395   0.395   0.395
 2015 233    73   353    88      0     64      2    20   323    90    0.05   0.0   0.0   0.00   0.383   0.387   0.385   0.403   0.398   0.395   0.395   0.395   0.395
 2015 234    74   370   104      0     64      2    21   343    90    0.04   0.0   0.0   0.00   0.433   0.420   0.425   0.437   0.412   0.397   0.392   0.391   0.391

*DSSAT Cropping System Model Ver. 4.7.5.007 -  MAR 01, 2026 21:01:02
!                                                                                                 Soil water content (mm3/mm3) by soil depth (cm):
!                                                                                                0-10   10-20   20-30   30-40   40-50   50-60   60-70   70-80   80-90
@YEAR DOY   DAS  SWTD  SWXD   ROFC   DRNC   PREC  IR#C  IRRC  DTWT    MWTD  TDFD  TDFC   ROFD    SW1D    SW2D    SW3D    SW4D    SW5D    SW6D    SW7D    SW8D    SW9D
 2016 131     0   329   106      0      0      0     0     0     0    0.00   0.0   0.0   0.00   0.391   0.375   0.356   0.362   0.362   0.362   0.362   0.362   0.362
 2016 132     1   346   123      0      0      0     1    20    45    0.00   0.0   0.0   0.00   0.468   0.430   0.395   0.372   0.363   0.360   0.359   0.359   0.359
 2016 133     2   339   115      0      4      0     1    20    90    0.00   0.0   0.0   0.00   0.441   0.409   0.380   0.365   0.359   0.359   0.359   0.359   0.359
 2016 134     3   340   116      0      4      4     1    20    90    0.00   0.0   0.0   0.03   0.451   0.412   0.382   0.370   0.361   0.356   0.356   0.356   0.356
 2016 135     4   336   112      0      6      4     1    20    90    0.00   0.0   0.0   0.00   0.429   0.397   0.371   0.364   0.359   0.359   0.359   0.359   0.359
 2016 136     5   333   109      0      6      4     1    20    90    0.00   0.0   0.0   0.00   0.416   0.389   0.364   0.362   0.360   0.360   0.360   0.360   0.360
 2016 137     6   360   136      1      6     14     2    40    90    0.00   0.0   0.0   0.85   0.469   0.429   0.427   0.422   0.404   0.371   0.361   0.358   0.357
 2016 138     7   357   133      1      6     15     2    40    90    0.00   0.0   0.0   0.00   0.446   0.424   0.417   0.420   0.406   0.379   0.365   0.357   0.354
 2016 139     8   346   123      1     14     15     2    40    90    0.00   0.0   0.0   0.00   0.426   0.406   0.395   0.399   0.389   0.371   0.361   0.359   0.359
 2016 140     9   339   115      1     18     15     2    40    90    0.00   0.0   0.0   0.00   0.411   0.392   0.380   0.384   0.378   0.365   0.359   0.359   0.359
 2016 141    10   355   132      1     18     15     3    60    90    0.00   0.0   0.0   0.00   0.467   0.429   0.426   0.407   0.384   0.369   0.360   0.356   0.356
 2016 142    11   346   122      1     25     15     3    60    90    0.00   0.0   0.0   0.00   0.440   0.409   0.401   0.390   0.375   0.364   0.359   0.359   0.359
 2016 143    12   338   114      1     29     15     3    60    90    0.00   0.0   0.0   0.00   0.421   0.394   0.384   0.378   0.367   0.360   0.359   0.359   0.359
 2016 144    13   334   110      1     31     15     3    60    90    0.00   0.0   0.0   0.00   0.409   0.386   0.373   0.371   0.364   0.360   0.360   0.360   0.360
 2016 145    14   341   117      1     31     15     4    70    90    0.00   0.0   0.0   0.00   0.467   0.403   0.374   0.372   0.364   0.359   0.357   0.357   0.357
 2016 146    15   335   112      1     33     15     4    70    90    0.00   0.0   0.0   0.00   0.438   0.390   0.364   0.365   0.361   0.359   0.359   0.359   0.359
 2016 147    16   331   108      1     34     15     4    70    90    0.00   0.0   0.0   0.00   0.419   0.381   0.358   0.361   0.359   0.359   0.359   0.359   0.359
 2016 148    17   338   114      1     34     15     5    80    90    0.00   0.0   0.0   0.00   0.465   0.406   0.364   0.362   0.357   0.356   0.356   0.356   0.356
 2016 149    18   334   110      1     34     15     5    80    90    0.00   0.0   0.0   0.00   0.436   0.391   0.357   0.358   0.359   0.359   0.359   0.359   0.359
 2016 150    19   330   107      1     34     15     5    80    90    0.00   0.0   0.0   0.00   0.417   0.381   0.353   0.359   0.359   0.359   0.359   0.359   0.358
 2016 151    20   337   113      1     34     15     6    90    90    0.00   0.0   0.0   0.00   0.465   0.405   0.360   0.359   0.356   0.356   0.356   0.356   0.355
 2016 152    21   333   109      1     34     15     6    90    90    0.00   0.0   0.0   0.00   0.436   0.390   0.354   0.358   0.359   0.359   0.359   0.359   0.356
 2016 153    22   339   115      1     34     15     7   100    90    0.00   0.0   0.0   0.00   0.465   0.424   0.366   0.361   0.356   0.356   0.356   0.356   0.353
 2016 154    23   336   112      1     35     15     7   100    90    0.00   0.0   0.0   0.00   0.438   0.404   0.360   0.360   0.360   0.360   0.360   0.360   0.360
 2016 155    24   339   115      1     35     15     8   106    90    0.00   0.0   0.0   0.00   0.463   0.410   0.367   0.362   0.359   0.358   0.358   0.358   0.358
 2016 156    25   335   111      1     36     15     8   106    90    0.00   0.0   0.0   0.00   0.434   0.394   0.359   0.359   0.360   0.360   0.360   0.360   0.360
 2016 157    26   330   107      1     37     15     8   106    90    0.00   0.0   0.0   0.00   0.413   0.381   0.354   0.358   0.359   0.360   0.360   0.360   0.360
 2016 158    27   326   103      1     37     15     8   106    90    0.00   0.0   0.0   0.00   0.398   0.371   0.350   0.358   0.359   0.357   0.357   0.357   0.357
 2016 159    28   333   110      1     37     15     9   116    90    0.00   0.0   0.0   0.00   0.461   0.387   0.353   0.355   0.357   0.355   0.355   0.355   0.355
 2016 160    29   331   107      1     37     15     9   116    90    0.00   0.0   0.0   0.00   0.433   0.377   0.351   0.359   0.360   0.360   0.357   0.354   0.354
 2016 161    30   337   113      1     37     15    10   126    90    0.01   0.0   0.0   0.00   0.464   0.412   0.361   0.360   0.358   0.359   0.355   0.352   0.352
 2016 162    31   334   110      1     37     15    10   126    90    0.01   0.0   0.0   0.00   0.434   0.394   0.354   0.359   0.360   0.360   0.360   0.360   0.359
 2016 163    32   331   107      1     37     15    10   126    90    0.01   0.0   0.0   0.00   0.413   0.382   0.351   0.359   0.360   0.361   0.361   0.361   0.361
 2016 164    33   328   104      1     37     15    10   126    90    0.02   0.0   0.0   0.00   0.399   0.374   0.351   0.359   0.358   0.359   0.359   0.359   0.359
 2016 165    34   324   101      1     37     15    10   126    90    0.02   0.0   0.0   0.00   0.388   0.367   0.347   0.356   0.356   0.358   0.358   0.358   0.358
 2016 166    35   322    98      1     37     15    10   126    90    0.02   0.0   0.0   0.00   0.373   0.361   0.342   0.354   0.356   0.358   0.358   0.358   0.358
 2016 167    36   329   105      1     37     15    11   136    90    0.03   0.0   0.0   0.00   0.444   0.373   0.339   0.350   0.354   0.356   0.356   0.356   0.356
 2016 168    37   331   107      1     37     15    12   142    90    0.03   0.0   0.0   0.00   0.462   0.388   0.342   0.347   0.352   0.355   0.355   0.355   0.355
 2016 169    38   327   104      1     37     15    12   142    90    0.03   0.0   0.0   0.00   0.431   0.376   0.350   0.354   0.349   0.354   0.354   0.354   0.354
 2016 170    39   334   110      1     37     15    13   152    90    0.03   0.0   0.0   0.00   0.462   0.408   0.358   0.354   0.347   0.352   0.352   0.352   0.352
 2016 171    40   330   107      1     37     15    13   152    90    0.03   0.0   0.0   0.00   0.431   0.390   0.352   0.359   0.360   0.359   0.351   0.351   0.351
 2016 172    41   327   103      1     37     15    13   152    90    0.03   0.0   0.0   0.00   0.410   0.378   0.350   0.359   0.360   0.361   0.354   0.350   0.350
 2016 173    42   330   107      1     37     15    14   158    90    0.03   0.0   0.0   0.00   0.441   0.386   0.353   0.356   0.358   0.360   0.353   0.349   0.349
 2016 174    43   328   104      1     37     15    14   158    90    0.03   0.0   0.0   0.00   0.418   0.376   0.351   0.359   0.360   0.361   0.355   0.348   0.348
 2016 175    44   335   111      1     37     15    15   168    90    0.03   0.0   0.0   0.00   0.464   0.401   0.357   0.359   0.359   0.360   0.354   0.347   0.347
 2016 176    45   331   108      1     37     15    15   168    90    0.03   0.0   0.0   0.00   0.433   0.386   0.351   0.358   0.360   0.361   0.361   0.359   0.346
 2016 177    46   338   114      1     37     15    16   178    90    0.03   0.0   0.0   0.00   0.462   0.417   0.362   0.360   0.358   0.359   0.359   0.358   0.344
 2016 178    47   334   110      1     38     15    16   178    90    0.03   0.0   0.0   0.00   0.431   0.396   0.354   0.358   0.360   0.361   0.361   0.361   0.361
 2016 179    48   330   106      1     38     15    16   178    90    0.03   0.0   0.0   0.00   0.409   0.382   0.350   0.358   0.360   0.361   0.361   0.361   0.361
 2016 180    49   327   103      1     38     15    16   178    90    0.03   0.0   0.0   0.00   0.394   0.372   0.350   0.356   0.358   0.359   0.359   0.359   0.359
 2016 181    50   341   117      1     38     15    17   195    90    0.03   0.0   0.0   0.00   0.464   0.426   0.368   0.360   0.356   0.358   0.358   0.358   0.358
 2016 182    51   337   113      1     40     15    17   195    90    0.03   0.0   0.0   0.00   0.435   0.405   0.360   0.360   0.361   0.361   0.361   0.361   0.361
 2016 183    52   331   108      1     41     15    17   195    90    0.03   0.0   0.0   0.00   0.412   0.388   0.353   0.358   0.360   0.360   0.360   0.360   0.360
 2016 184    53   353   129      1     41     15    18   219    90    0.03   0.0   0.0   0.00   0.465   0.427   0.425   0.397   0.370   0.364   0.359   0.359   0.359
 2016 185    54   343   119      1     48     15    18   219    90    0.03   0.0   0.0   0.00   0.433   0.404   0.399   0.383   0.366   0.362   0.361   0.361   0.361
 2016 186    55   336   112      1     51     15    18   219    90    0.03   0.0   0.0   0.00   0.413   0.388   0.380   0.373   0.363   0.361   0.361   0.361   0.361
 2016 187    56   331   108      1     53     15    18   219    90    0.03   0.0   0.0   0.00   0.398   0.378   0.368   0.367   0.361   0.361   0.361   0.361   0.361
 2016 188    57   353   129      1     53     15    19   243    90    0.03   0.0   0.0   0.00   0.464   0.427   0.425   0.397   0.371   0.363   0.360   0.359   0.359
 2016 189    58   343   119      1     59     15    19   243    90    0.03   0.0   0.0   0.00   0.434   0.404   0.399   0.383   0.366   0.361   0.361   0.361   0.361
 2016 190    59   336   112      1     63     15    19   243    90    0.03   0.0   0.0   0.00   0.412   0.388   0.380   0.373   0.363   0.360   0.360   0.360   0.360
 2016 191    60   357   133      1     63     15    20   267    90    0.03   0.0   0.0   0.00   0.463   0.426   0.424   0.422   0.383   0.366   0.362   0.359   0.359
 2016 192    61   345   121      1     71     15    20   267    90    0.03   0.0   0.0   0.00   0.432   0.403   0.398   0.400   0.374   0.363   0.360   0.360   0.360
 2016 193    62   337   114      1     75     15    20   267    90    0.03   0.0   0.0   0.00   0.412   0.388   0.380   0.385   0.368   0.362   0.360   0.360   0.360
 2016 194    63   332   108      1     77     15    20   267    90    0.05   0.0   0.0   0.00   0.397   0.377   0.367   0.374   0.363   0.360   0.360   0.360   0.360
 2016 195    64   352   129      1     77     15    21   291    90    0.06   0.0   0.0   0.00   0.465   0.427   0.425   0.399   0.372   0.362   0.358   0.357   0.357
 2016 196    65   343   119      1     83     15    21   291    90    0.07   0.0   0.0   0.00   0.436   0.405   0.399   0.383   0.366   0.359   0.359   0.359   0.359
 2016 197    66   336   112      1     86     15    21   291    90    0.06   0.0   0.0   0.00   0.416   0.390   0.381   0.373   0.362   0.359   0.359   0.359   0.359
 2016 198    67   331   107      1     87     15    21   291    90    0.06   0.0   0.0   0.00   0.402   0.380   0.369   0.366   0.359   0.359   0.359   0.359   0.359
 2016 199    68   328   104      1     87     15    21   291    90    0.05   0.0   0.0   0.00   0.394   0.375   0.361   0.362   0.359   0.359   0.359   0.356   0.356
 2016 200    69   349   125      1     87     15    22   315    90    0.04   0.0   0.0   0.00   0.467   0.429   0.426   0.383   0.364   0.359   0.356   0.354   0.353

*DSSAT Cropping System Model Ver. 4.7.5.007 -  MAR 01, 2026 21:01:02
!                                                                                                 Soil water content (mm3/mm3) by soil depth (cm):
!                                                                                                0-10   10-20   20-30   30-40   40-50   50-60   60-70   70-80   80-90
@YEAR DOY   DAS  SWTD  SWXD   ROFC   DRNC   PREC  IR#C  IRRC  DTWT    MWTD  TDFD  TDFC   ROFD    SW1D    SW2D    SW3D    SW4D    SW5D    SW6D    SW7D    SW8D    SW9D
 2016 153     0   329   106      0      0      0     0     0     0    0.00   0.0   0.0   0.00   0.391   0.375   0.356   0.362   0.362   0.362   0.362   0.362   0.362
 2016 154     1   337   113      0      0      0     1    10    45    0.00   0.0   0.0   0.00   0.460   0.391   0.359   0.361   0.359   0.359   0.359   0.359   0.359
 2016 155     2   333   109      0      1      0     1    10    90    0.00   0.0   0.0   0.00   0.436   0.383   0.356   0.359   0.359   0.359   0.359   0.359   0.359
 2016 156     3   336   112      0      1      0     2    16    90    0.00   0.0   0.0   0.00   0.463   0.397   0.360   0.359   0.356   0.356   0.356   0.356   0.356
 2016 157     4   333   109      0      1      0     2    16    90    0.00   0.0   0.0   0.00   0.438   0.387   0.356   0.359   0.359   0.359   0.359   0.359   0.354
 2016 158     5   330   106      0      1      0     2    16    90    0.00   0.0   0.0   0.00   0.420   0.380   0.353   0.359   0.359   0.359   0.359   0.359   0.352
 2016 159     6   327   103      0      1      0     2    16    90    0.00   0.0   0.0   0.00   0.407   0.375   0.353   0.359   0.359   0.356   0.356   0.356   0.349
 2016 160     7   334   110      0      1      0     3    26    90    0.00   0.0   0.0   0.00   0.468   0.396   0.358   0.358   0.356   0.353   0.353   0.353   0.346
 2016 161     8   331   107      0      1      0     3    26    90    0.00   0.0   0.0   0.00   0.440   0.386   0.354   0.359   0.359   0.359   0.359   0.350   0.343
 2016 162     9   338   114      0      1      0     4    36    90    0.00   0.0   0.0   0.00   0.467   0.426   0.368   0.361   0.357   0.356   0.356   0.347   0.340
 2016 163    10   335   111      0      1      0     4    36    90    0.00   0.0   0.0   0.00   0.440   0.406   0.361   0.359   0.359   0.359   0.359   0.359   0.346
 2016 164    11   332   108      0      1      0     4    36    90    0.00   0.0   0.0   0.00   0.421   0.393   0.356   0.359   0.359   0.359   0.359   0.359   0.352
 2016 165    12   328   105      0      1      0     4    36    90    0.00   0.0   0.0   0.00   0.407   0.383   0.352   0.359   0.359   0.359   0.359   0.357   0.349
 2016 166    13   325   102      0      1      0     4    36    90    0.00   0.0   0.0   0.00   0.398   0.377   0.352   0.359   0.356   0.356   0.356   0.354   0.346
 2016 167    14   322    98      0      1      0     4    36    90    0.00   0.0   0.0   0.00   0.391   0.372   0.351   0.356   0.353   0.353   0.353   0.351   0.343
 2016 168    15   329   105      0      1      0     5    46    90    0.00   0.0   0.0   0.00   0.459   0.387   0.354   0.352   0.350   0.350   0.350   0.348   0.340
 2016 169    16   331   107      0      1      0     6    52    90    0.00   0.0   0.0   0.00   0.455   0.409   0.363   0.354   0.348   0.347   0.348   0.346   0.339
 2016 170    17   327   104      0      1      0     6    52    90    0.00   0.0   0.0   0.00   0.430   0.393   0.356   0.359   0.359   0.354   0.345   0.343   0.336
 2016 171    18   334   110      0      1      0     7    62    90    0.00   0.0   0.0   0.00   0.466   0.423   0.368   0.361   0.357   0.351   0.342   0.340   0.333
 2016 172    19   330   107      0      1      0     7    62    90    0.00   0.0   0.0   0.00   0.437   0.402   0.360   0.359   0.359   0.359   0.359   0.340   0.330
 2016 173    20   327   103      0      1      0     7    62    90    0.00   0.0   0.0   0.00   0.418   0.389   0.355   0.359   0.359   0.359   0.359   0.347   0.327
 2016 174    21   330   106      0      1      0     8    68    90    0.00   0.0   0.0   0.00   0.449   0.397   0.359   0.359   0.356   0.356   0.356   0.344   0.325
 2016 175    22   327   103      0      1      0     8    68    90    0.00   0.0   0.0   0.00   0.426   0.385   0.354   0.359   0.359   0.359   0.359   0.346   0.322
 2016 176    23   333   109      0      1      0     9    78    90    0.00   0.0   0.0   0.00   0.465   0.413   0.363   0.361   0.356   0.356   0.356   0.343   0.320
 2016 177    24   329   106      0      1      0     9    78    90    0.00   0.0   0.0   0.00   0.435   0.395   0.356   0.358   0.359   0.359   0.359   0.357   0.317
 2016 178    25   336   112      0      1      0    10    88    90    0.00   0.0   0.0   0.00   0.464   0.426   0.368   0.361   0.357   0.356   0.356   0.354   0.315
 2016 179    26   332   108      0      1      0    10    88    90    0.00   0.0   0.0   0.00   0.434   0.404   0.359   0.358   0.359   0.359   0.359   0.359   0.327
 2016 180    27   328   104      0      1      0    10    88    90    0.00   0.0   0.0   0.00   0.413   0.388   0.353   0.358   0.359   0.359   0.359   0.359   0.333
 2016 181    28   325   101      0      1      0    10    88    90    0.00   0.0   0.0   0.00   0.399   0.378   0.351   0.359   0.360   0.358   0.357   0.357   0.331
 2016 182    29   340   116      0      1      0    11   105    90    0.00   0.0   0.0   0.00   0.466   0.428   0.378   0.365   0.360   0.356   0.356   0.356   0.329
 2016 183    30   336   112      0      1      0    11   105    90    0.00   0.0   0.0   0.00   0.435   0.404   0.365   0.360   0.359   0.360   0.360   0.360   0.354
 2016 184    31   332   108      0      2      0    11   105    90    0.00   0.0   0.0   0.00   0.415   0.390   0.358   0.359   0.360   0.360   0.360   0.360   0.360
 2016 185    32   353   129      0      2      0    12   129    90    0.01   0.0   0.0   0.00   0.463   0.426   0.424   0.403   0.372   0.363   0.360   0.359   0.359
 2016 186    33   343   120      0      8      0    12   129    90    0.01   0.0   0.0   0.00   0.434   0.404   0.399   0.388   0.367   0.361   0.360   0.360   0.360
 2016 187    34   337   113      0     12      0    12   129    90    0.01   0.0   0.0   0.00   0.413   0.389   0.381   0.377   0.363   0.361   0.361   0.361   0.361
 2016 188    35   332   108      0     13      0    12   129    90    0.02   0.0   0.0   0.00   0.399   0.378   0.368   0.369   0.362   0.361   0.361   0.361   0.361
 2016 189    36   353   129      0     13      0    13   153    90    0.02   0.0   0.0   0.00   0.463   0.426   0.424   0.399   0.372   0.363   0.360   0.359   0.359
 2016 190    37   343   119      0     20      0    13   153    90    0.02   0.0   0.0   0.00   0.433   0.403   0.398   0.384   0.367   0.362   0.361   0.361   0.361
 2016 191    38   336   112      0     24      0    13   153    90    0.03   0.0   0.0   0.00   0.411   0.387   0.380   0.374   0.363   0.361   0.361   0.361   0.361
 2016 192    39   356   132      0     24      0    14   177    90    0.03   0.0   0.0   0.00   0.462   0.425   0.424   0.422   0.382   0.366   0.362   0.359   0.359
 2016 193    40   345   121      0     31      0    14   177    90    0.03   0.0   0.0   0.00   0.431   0.402   0.397   0.400   0.374   0.364   0.361   0.361   0.361
 2016 194    41   337   113      0     36      0    14   177    90    0.03   0.0   0.0   0.00   0.409   0.385   0.378   0.385   0.368   0.363   0.361   0.361   0.361
 2016 195    42   332   108      0     38      0    14   177    90    0.03   0.0   0.0   0.00   0.395   0.375   0.366   0.375   0.365   0.361   0.361   0.361   0.361
 2016 196    43   352   128      0     38      0    15   201    90    0.03   0.0   0.0   0.00   0.461   0.424   0.423   0.395   0.373   0.364   0.361   0.359   0.359
 2016 197    44   342   118      0     44      0    15   201    90    0.03   0.0   0.0   0.00   0.430   0.401   0.396   0.381   0.367   0.363   0.361   0.361   0.361
 2016 198    45   335   111      0     47      0    15   201    90    0.04   0.0   0.0   0.00   0.407   0.384   0.377   0.371   0.363   0.361   0.361   0.361   0.361
 2016 199    46   330   107      0     49      0    15   201    90    0.04   0.0   0.0   0.00   0.394   0.374   0.365   0.365   0.362   0.361   0.361   0.361   0.361
 2016 200    47   327   103      0     49      0    15   201    90    0.03   0.0   0.0   0.00   0.384   0.366   0.356   0.361   0.360   0.361   0.361   0.361   0.360
 2016 201    48   347   123      0     49      0    16   225    90    0.03   0.0   0.0   0.00   0.462   0.425   0.409   0.375   0.363   0.361   0.359   0.359   0.358
 2016 202    49   339   115      0     53      0    16   225    90    0.03   0.0   0.0   0.00   0.430   0.401   0.387   0.367   0.361   0.361   0.361   0.361   0.361
 2016 203    50   333   109      0     56      0    16   225    90    0.03   0.0   0.0   0.00   0.409   0.385   0.371   0.362   0.360   0.361   0.361   0.361   0.361
 2016 204    51   353   129      0     56      0    17   249    90    0.03   0.0   0.0   0.00   0.462   0.425   0.424   0.406   0.373   0.363   0.360   0.359   0.359
 2016 205    52   344   120      0     62      0    17   249    90    0.04   0.0   0.0   0.00   0.432   0.403   0.398   0.390   0.368   0.362   0.361   0.361   0.361
 2016 206    53   336   112      0     66      0    17   249    90    0.03   0.0   0.0   0.00   0.409   0.385   0.378   0.377   0.364   0.361   0.360   0.360   0.360
 2016 207    54   330   106      0     68      0    17   249    90    0.03   0.0   0.0   0.00   0.393   0.373   0.365   0.369   0.361   0.360   0.360   0.360   0.360
 2016 208    55   350   126      0     68      0    18   273    90    0.03   0.0   0.0   0.00   0.461   0.424   0.423   0.387   0.368   0.362   0.359   0.359   0.359
 2016 209    56   341   117      0     73      0    18   273    90    0.04   0.0   0.0   0.00   0.429   0.400   0.396   0.376   0.364   0.361   0.360   0.360   0.360
 2016 210    57   334   110      0     76      0    18   273    90    0.04   0.0   0.0   0.00   0.407   0.384   0.377   0.367   0.361   0.360   0.360   0.360   0.360
 2016 211    58   354   130      0     76      0    19   297    90    0.04   0.0   0.0   0.00   0.461   0.424   0.423   0.412   0.375   0.364   0.360   0.359   0.359
 2016 212    59   343   119      0     83      0    19   297    90    0.03   0.0   0.0   0.00   0.430   0.401   0.396   0.393   0.369   0.362   0.360   0.360   0.360
 2016 213    60   336   112      0     86      0    19   297    90    0.03   0.0   0.0   0.00   0.408   0.385   0.378   0.380   0.364   0.360   0.360   0.360   0.360
 2016 214    61   330   106      0     88      0    19   297    90    0.03   0.0   0.0   0.00   0.393   0.373   0.364   0.370   0.362   0.360   0.360   0.360   0.360
 2016 215    62   350   126      0     88      0    20   321    90    0.03   0.0   0.0   0.00   0.461   0.424   0.423   0.388   0.368   0.362   0.358   0.358   0.358
 2016 216    63   341   117      0     93      0    20   321    90    0.03   0.0   0.0   0.00   0.431   0.402   0.397   0.376   0.364   0.360   0.360   0.360   0.360
 2016 217    64   334   110      0     96      0    20   321    90    0.05   0.0   0.0   0.00   0.410   0.386   0.378   0.367   0.360   0.360   0.360   0.360   0.360
 2016 218    65   354   130      0     96      0    21   345    90    0.06   0.0   0.0   0.00   0.463   0.425   0.424   0.416   0.375   0.362   0.358   0.357   0.357
 2016 219    66   343   119      0    102      0    21   345    90    0.07   0.0   0.0   0.00   0.433   0.403   0.397   0.395   0.368   0.359   0.359   0.359   0.359
 2016 220    67   336   112      0    106      0    21   345    90    0.06   0.0   0.0   0.00   0.413   0.388   0.379   0.381   0.362   0.359   0.359   0.359   0.359
 2016 221    68   331   107      0    107      0    21   345    90    0.06   0.0   0.0   0.00   0.400   0.379   0.367   0.371   0.359   0.359   0.359   0.359   0.359
 2016 222    69   352   128      0    107      0    22   369    90    0.05   0.0   0.0   0.00   0.466   0.428   0.425   0.400   0.369   0.360   0.356   0.356   0.356
 2016 223    70   343   119      0    112      0    22   369    90    0.04   0.0   0.0   0.00   0.438   0.407   0.400   0.385   0.364   0.359   0.359   0.359   0.359
