*SOIL-PLANT-ATMOSPHERE MODULE OUTPUT FILE

*DSSAT Cropping System Model Ver. 4.7.5.007 -  MAR 01, 2026 21:19:28
!                                                                                                                                                                                        Soil evaporation (mm/d) by soil depth (cm):
!                                                                                                                                                                                       0-10   10-20   20-30   30-40   40-50   50-60   60-70   70-80   80-90
@YEAR DOY   DAS   SRAA  TMAXA  TMINA    REFA    EOAA    EOPA    EOSA    KCAA    KCBA    KEAA    ETAA    EPAA    ESAA    EFAA    EMAA    EOAC    ETAC    EPAC    ESAC    EFAC    EMAC    ES1D    ES2D    ES3D    ES4D    ES5D    ES6D    ES7D    ES8D    ES9D   TRWUD
 2015 103     1  16.80  29.50  21.00 -99.000   4.626   0.000   4.626 -99.000 -99.000 -99.000   3.146   0.000   3.146   0.000   0.000    4.63    3.15    0.00    3.15    0.00    0.00   0.355   0.350   0.351   0.363   0.362   0.346   0.341   0.340   0.339   0.000
 2015 104     2  12.00  27.60  21.40 -99.000   3.278   0.000   3.278 -99.000 -99.000 -99.000   3.278   0.000   3.278   0.000   0.000    7.90    6.42    0.00    6.42    0.00    0.00   1.169   0.517   0.369   0.298   0.250   0.207   0.174   0.154   0.140   0.000
 2015 105     3  12.80  29.20  21.00 -99.000   3.543   0.000   3.543 -99.000 -99.000 -99.000   3.281   0.000   3.281   0.000   0.000   11.45    9.71    0.00    9.71    0.00    0.00   0.362   0.364   0.369   0.384   0.384   0.382   0.356   0.343   0.337   0.000
 2015 106     4  14.70  27.80  19.70 -99.000   3.958   0.000   3.958 -99.000 -99.000 -99.000   3.958   0.000   3.958   0.000   0.000   15.41   13.66    0.00   13.66    0.00    0.00   1.372   0.622   0.442   0.361   0.303   0.262   0.227   0.197   0.172   0.000
 2015 107     5  14.30  29.40  20.10 -99.000   3.940   0.000   3.940 -99.000 -99.000 -99.000   3.940   0.000   3.940   0.000   0.000   19.34   17.60    0.00   17.60    0.00    0.00   1.360   0.616   0.436   0.358   0.300   0.261   0.232   0.203   0.174   0.000
 2015 108     6  16.80  29.90  19.20 -99.000   4.598   0.050   4.547 -99.000 -99.000 -99.000   4.598   0.050   4.547   0.000   0.000   23.94   22.20    0.05   22.15    0.00    0.00   1.562   0.708   0.503   0.411   0.345   0.300   0.267   0.238   0.212   0.005
 2015 109     7  15.50  29.90  19.40 -99.000   4.252   0.108   4.191 -99.000 -99.000 -99.000   3.395   0.108   3.287   0.000   0.000   28.20   25.60    0.16   25.44    0.00    0.00   0.356   0.352   0.357   0.369   0.370   0.370   0.370   0.371   0.371   0.011
 2015 110     8  11.20  29.50  18.90 -99.000   3.035   0.056   2.978 -99.000 -99.000 -99.000   3.035   0.056   2.978   0.000   0.000   31.23   28.63    0.22   28.42    0.00    0.00   0.335   0.325   0.326   0.333   0.332   0.332   0.332   0.332   0.332   0.006
 2015 111     9  15.20  30.10  20.60 -99.000   4.212   0.104   4.107 -99.000 -99.000 -99.000   4.211   0.104   4.107   0.000   0.000   35.44   32.84    0.32   32.52    0.00    0.00   1.456   0.644   0.454   0.364   0.304   0.261   0.229   0.206   0.189   0.010
 2015 112    10  15.80  28.40  19.40 -99.000   4.244   0.228   4.112 -99.000 -99.000 -99.000   3.466   0.228   3.238   0.000   0.000   39.69   36.31    0.55   35.76    0.00    0.00   0.356   0.353   0.358   0.370   0.370   0.364   0.357   0.355   0.355   0.023
 2015 113    11  13.30  29.80  19.90 -99.000   3.625   0.226   3.495 -99.000 -99.000 -99.000   3.531   0.226   3.306   0.000   0.000   43.31   39.84    0.77   39.07    0.00    0.00   0.370   0.359   0.365   0.376   0.377   0.374   0.370   0.362   0.354   0.023
 2015 114    12  13.80  29.70  19.00 -99.000   3.740   0.293   3.569 -99.000 -99.000 -99.000   3.653   0.293   3.361   0.000   0.000   47.05   43.49    1.07   42.43    0.00    0.00   0.368   0.366   0.369   0.383   0.383   0.383   0.383   0.370   0.356   0.029
 2015 115    13  16.80  30.20  20.20 -99.000   4.591   0.443   4.330 -99.000 -99.000 -99.000   3.674   0.443   3.231   0.000   0.000   51.64   47.17    1.51   45.66    0.00    0.00   0.350   0.352   0.352   0.367   0.367   0.367   0.367   0.360   0.350   0.044
 2015 116    14  14.40  29.10  18.70 -99.000   3.822   0.448   3.555 -99.000 -99.000 -99.000   3.670   0.448   3.222   0.000   0.000   55.46   50.84    1.96   48.88    0.00    0.00   0.365   0.352   0.348   0.363   0.363   0.363   0.363   0.357   0.348   0.045
 2015 117    15  21.10  28.40  17.50 -99.000   5.511   0.777   5.043 -99.000 -99.000 -99.000   3.980   0.777   3.204   0.000   0.000   60.97   54.82    2.73   52.08    0.00    0.00   0.365   0.355   0.345   0.360   0.359   0.359   0.359   0.355   0.347   0.078
 2015 118    16  21.10  28.30  17.00 -99.000   5.459   0.497   4.960 -99.000 -99.000 -99.000   5.455   0.497   4.958   0.000   0.000   66.43   60.27    3.23   57.04    0.00    0.00   1.769   0.767   0.535   0.437   0.366   0.318   0.283   0.255   0.228   0.050
 2015 119    17  21.60  28.00  14.80 -99.000   5.479   0.949   4.895 -99.000 -99.000 -99.000   4.238   0.949   3.289   0.000   0.000   71.91   64.51    4.18   60.33    0.00    0.00   0.370   0.351   0.357   0.369   0.370   0.370   0.370   0.371   0.362   0.095
 2015 120    18  22.00   8.60   2.40 -99.000   3.763   0.443   3.316 -99.000 -99.000 -99.000   3.757   0.443   3.314   0.000   0.000   75.68   68.27    4.62   63.64    0.00    0.00   1.164   0.513   0.366   0.298   0.246   0.213   0.189   0.171   0.154   0.044
 2015 121    19  16.80  29.10  13.00 -99.000   4.233   0.809   3.730 -99.000 -99.000 -99.000   4.031   0.809   3.222   0.000   0.000   79.91   72.30    5.43   66.87    0.00    0.00   0.357   0.353   0.358   0.369   0.360   0.357   0.357   0.357   0.353   0.081
 2015 122    20  18.00  28.40  14.50 -99.000   4.517   0.990   3.891 -99.000 -99.000 -99.000   4.117   0.990   3.127   0.000   0.000   84.43   76.42    6.42   69.99    0.00    0.00   0.341   0.341   0.343   0.357   0.351   0.349   0.349   0.349   0.346   0.099
 2015 123    21  15.90  28.00  14.70 -99.000   3.955   0.890   3.346 -99.000 -99.000 -99.000   3.902   0.843   3.060   0.000   0.000   88.38   80.32    7.26   73.05    0.00    0.00   0.329   0.333   0.333   0.348   0.345   0.344   0.343   0.343   0.341   0.084
 2015 124    22   9.80  26.40  14.50 -99.000   2.380   0.389   1.989 -99.000 -99.000 -99.000   2.377   0.389   1.987   0.000   0.000   90.76   82.70    7.65   75.04    0.00    0.00   0.230   0.220   0.214   0.223   0.221   0.221   0.220   0.220   0.219   0.039
 2015 125    23  13.80  28.00  15.40 -99.000   3.441   0.670   2.768 -99.000 -99.000 -99.000   3.436   0.670   2.765   0.000   0.000   94.20   86.13    8.32   77.81    0.00    0.00   1.026   0.442   0.293   0.236   0.195   0.168   0.149   0.135   0.123   0.067
 2015 126    24   8.70  26.60  16.10 -99.000   2.125   0.502   1.621 -99.000 -99.000 -99.000   2.121   0.502   1.619   0.000   0.000   96.33   88.25    8.83   79.43    0.00    0.00   0.582   0.260   0.179   0.144   0.119   0.101   0.086   0.077   0.070   0.050
 2015 127    25  16.20  27.70  15.80 -99.000   3.971   1.087   2.880 -99.000 -99.000 -99.000   3.963   1.087   2.876   0.000   0.000  100.30   92.21    9.91   82.30    0.00    0.00   0.323   0.322   0.326   0.339   0.339   0.327   0.307   0.299   0.294   0.109
 2015 128    26  14.50  28.40  17.20 -99.000   3.588   1.125   2.460 -99.000 -99.000 -99.000   3.581   1.125   2.456   0.000   0.000  103.89   95.80   11.04   84.76    0.00    0.00   0.269   0.271   0.273   0.285   0.286   0.280   0.269   0.263   0.260   0.113
 2015 129    27  13.50  26.50  16.30 -99.000   3.215   1.162   2.050 -99.000 -99.000 -99.000   3.207   1.162   2.045   0.000   0.000  107.10   99.00   12.20   86.80    0.00    0.00   0.221   0.224   0.224   0.235   0.236   0.233   0.226   0.223   0.223   0.116
 2015 130    28  16.40  28.20  15.40 -99.000   3.922   1.583   2.335 -99.000 -99.000 -99.000   3.631   1.302   2.329   0.000   0.000  111.02  102.63   13.50   89.13    0.00    0.00   0.248   0.254   0.253   0.266   0.267   0.265   0.260   0.258   0.258   0.130
 2015 131    29   4.60  21.40  15.80 -99.000   1.014   0.418   0.595 -99.000 -99.000 -99.000   1.011   0.418   0.593   0.000   0.000  112.04  103.64   13.92   89.72    0.00    0.00   0.067   0.066   0.066   0.069   0.068   0.066   0.064   0.064   0.064   0.042
 2015 132    30   9.00  22.30  17.20 -99.000   2.031   0.878   1.150 -99.000 -99.000 -99.000   2.025   0.878   1.147   0.000   0.000  114.07  105.67   14.80   90.87    0.00    0.00   0.132   0.129   0.130   0.134   0.131   0.125   0.123   0.122   0.122   0.088
 2015 133    31  10.90  24.80  15.60 -99.000   2.482   1.145   1.335 -99.000 -99.000 -99.000   2.474   1.145   1.329   0.000   0.000  116.55  108.14   15.94   92.20    0.00    0.00   0.148   0.149   0.149   0.155   0.152   0.147   0.144   0.143   0.142   0.114
 2015 134    32  12.90  26.90  14.20 -99.000   2.957   1.446   1.510 -99.000 -99.000 -99.000   2.947   1.446   1.500   0.000   0.000  119.51  111.09   17.39   93.70    0.00    0.00   0.172   0.169   0.171   0.175   0.171   0.165   0.161   0.159   0.158   0.145
 2015 135    33  12.10  26.20  13.40 -99.000   2.733   1.361   1.374 -99.000 -99.000 -99.000   2.723   1.361   1.362   0.000   0.000  122.24  113.81   18.75   95.06    0.00    0.00   0.484   0.214   0.153   0.123   0.102   0.087   0.076   0.065   0.058   0.136
 2015 136    34  10.00  24.90  14.10 -99.000   2.222   1.166   1.061 -99.000 -99.000 -99.000   2.213   1.166   1.047   0.000   0.000  124.46  116.03   19.92   96.11    0.00    0.00   0.117   0.114   0.116   0.120   0.120   0.120   0.119   0.112   0.110   0.117
 2015 137    35  15.70  27.00  15.10 -99.000   3.585   1.966   1.628 -99.000 -99.000 -99.000   3.571   1.966   1.606   0.000   0.000  128.05  119.60   21.88   97.72    0.00    0.00   0.175   0.174   0.176   0.183   0.184   0.184   0.182   0.175   0.172   0.197
 2015 138    36  14.30  27.50  16.10 -99.000   3.292   1.882   1.420 -99.000 -99.000 -99.000   3.280   1.882   1.397   0.000   0.000  131.34  122.88   23.76   99.11    0.00    0.00   0.150   0.151   0.151   0.159   0.160   0.160   0.159   0.155   0.153   0.188
 2015 139    37  12.80  27.00  19.80 -99.000   3.002   1.773   1.242 -99.000 -99.000 -99.000   2.991   1.773   1.218   0.000   0.001  134.34  125.87   25.54  100.33    0.00    0.00   0.139   0.133   0.130   0.136   0.137   0.138   0.137   0.134   0.133   0.177
 2015 140    38  14.00  26.40  16.80 -99.000   3.189   1.908   1.299 -99.000 -99.000 -99.000   3.175   1.908   1.267   0.000   0.001  137.53  129.04   27.44  101.60    0.00    0.00   0.151   0.141   0.134   0.140   0.141   0.142   0.142   0.139   0.138   0.191
 2015 141    39  15.50  26.70  15.70 -99.000   3.490   2.194   1.322 -99.000 -99.000 -99.000   3.474   2.194   1.279   0.000   0.002  141.02  132.52   29.64  102.88    0.00    0.01   0.145   0.142   0.136   0.143   0.143   0.144   0.144   0.143   0.141   0.219
 2015 142    40  13.50  26.60  16.10 -99.000   3.034   1.974   1.082 -99.000 -99.000 -99.000   3.018   1.974   1.045   0.000   0.003  144.05  135.53   31.61  103.92    0.00    0.01   0.120   0.117   0.117   0.120   0.116   0.115   0.114   0.114   0.113   0.197
 2015 143    41  12.20  26.80  18.70 -99.000   2.798   1.880   0.939 -99.000 -99.000 -99.000   2.784   1.880   0.904   0.000   0.003  146.85  138.32   33.49  104.83    0.00    0.01   0.103   0.102   0.103   0.105   0.100   0.098   0.098   0.098   0.097   0.188
 2015 144    42  14.70  28.20  18.10 -99.000   3.396   2.368   1.054 -99.000 -99.000 -99.000   3.379   2.368   1.010   0.000   0.003  150.25  141.70   35.86  105.84    0.00    0.01   0.112   0.112   0.113   0.116   0.113   0.112   0.111   0.111   0.111   0.237
 2015 145    43  16.20  28.40  19.50 -99.000   3.779   2.716   1.092 -99.000 -99.000 -99.000   3.760   2.716   1.044   0.000   0.003  154.03  145.46   38.58  106.88    0.00    0.02   0.112   0.114   0.114   0.120   0.118   0.117   0.117   0.116   0.116   0.272
 2015 146    44  16.40  28.20  18.90 -99.000   3.791   2.789   1.031 -99.000 -99.000 -99.000   3.772   2.789   0.983   0.000   0.004  157.82  149.23   41.37  107.86    0.00    0.02   0.110   0.108   0.109   0.114   0.114   0.110   0.107   0.106   0.106   0.279
 2015 147    45  14.10  28.30  18.90 -99.000   3.266   2.406   0.888 -99.000 -99.000 -99.000   3.248   2.406   0.843   0.000   0.004  161.08  152.48   43.77  108.71    0.00    0.03   0.095   0.093   0.094   0.098   0.098   0.094   0.091   0.090   0.089   0.241
 2015 148    46  14.20  27.70  12.20 -99.000   3.094   2.334   0.785 -99.000 -99.000 -99.000   3.075   2.334   0.741   0.000   0.004  164.18  155.55   46.11  109.45    0.00    0.03   0.081   0.081   0.081   0.085   0.086   0.083   0.081   0.081   0.081   0.233
 2015 149    47  14.70  27.20  10.40 -99.000   3.136   2.385   0.776 -99.000 -99.000 -99.000   3.115   2.385   0.730   0.000   0.004  167.31  158.67   48.49  110.18    0.00    0.03   0.078   0.079   0.079   0.083   0.084   0.083   0.081   0.081   0.081   0.238
 2015 150    48  16.40  29.00  11.00 -99.000   3.589   2.745   0.875 -99.000 -99.000 -99.000   3.567   2.745   0.822   0.000   0.004  170.90  162.24   51.24  111.00    0.00    0.04   0.086   0.089   0.088   0.094   0.095   0.094   0.093   0.092   0.092   0.274
 2015 151    49  16.50  30.70  12.00 -99.000   3.710   2.852   0.893 -99.000 -99.000 -99.000   3.688   2.852   0.836   0.000   0.004  174.61  165.92   54.09  111.84    0.00    0.04   0.085   0.089   0.089   0.095   0.096   0.096   0.095   0.095   0.095   0.285
 2015 152    50  14.80  29.60  12.40 -99.000   3.295   2.531   0.797 -99.000 -99.000 -99.000   2.925   2.181   0.743   0.000   0.005  177.91  168.85   56.27  112.58    0.00    0.05   0.084   0.083   0.078   0.082   0.084   0.084   0.083   0.083   0.083   0.218
 2015 153    51  15.30  28.70  16.60 -99.000   3.486   2.666   0.859 -99.000 -99.000 -99.000   3.466   2.666   0.800   0.000   0.005  181.39  172.31   58.94  113.38    0.00    0.05   0.095   0.092   0.084   0.087   0.088   0.089   0.088   0.088   0.088   0.267
 2015 154    52  14.20  27.70  16.20 -99.000   3.186   2.450   0.773 -99.000 -99.000 -99.000   3.167   2.450   0.717   0.000   0.005  184.58  175.48   61.39  114.10    0.00    0.06   0.080   0.080   0.076   0.080   0.080   0.080   0.080   0.080   0.080   0.245
 2015 155    53  16.10  27.10  15.40 -99.000   3.563   2.750   0.855 -99.000 -99.000 -99.000   3.542   2.750   0.791   0.000   0.005  188.14  179.02   64.14  114.89    0.00    0.06   0.086   0.087   0.084   0.089   0.089   0.089   0.089   0.089   0.089   0.275
 2015 156    54  15.40  27.10  15.40 -99.000   3.408   2.623   0.828 -99.000 -99.000 -99.000   3.387   2.623   0.765   0.000   0.005  191.55  182.41   66.76  115.65    0.00    0.07   0.087   0.086   0.085   0.085   0.084   0.084   0.084   0.084   0.084   0.262
 2015 157    55  15.60  27.80  15.60 -99.000   3.491   2.652   0.890 -99.000 -99.000 -99.000   3.471   2.652   0.819   0.000   0.005  195.04  185.88   69.41  116.47    0.00    0.07   0.095   0.093   0.092   0.091   0.090   0.089   0.089   0.089   0.089   0.265
 2015 158    56  15.20  27.70  15.90 -99.000   3.404   2.576   0.886 -99.000 -99.000 -99.000   3.384   2.576   0.808   0.000   0.005  198.45  189.26   71.99  117.28    0.00    0.08   0.090   0.090   0.089   0.090   0.090   0.090   0.090   0.090   0.090   0.258
 2015 159    57  15.10  28.00  14.50 -99.000   3.357   2.525   0.893 -99.000 -99.000 -99.000   3.336   2.525   0.811   0.000   0.006  201.80  192.60   74.51  118.09    0.00    0.08   0.087   0.089   0.088   0.091   0.091   0.091   0.091   0.091   0.091   0.252
 2015 160    58  16.00  28.30  14.20 -99.000   3.561   2.662   0.969 -99.000 -99.000 -99.000   3.539   2.662   0.877   0.000   0.006  205.36  196.14   77.17  118.97    0.00    0.09   0.099   0.098   0.099   0.102   0.097   0.096   0.096   0.095   0.095   0.266
 2015 161    59  10.80  27.40  14.70 -99.000   2.391   1.775   0.665 -99.000 -99.000 -99.000   2.375   1.775   0.599   0.000   0.005  207.75  198.51   78.95  119.57    0.00    0.09   0.069   0.067   0.068   0.070   0.066   0.065   0.065   0.065   0.065   0.178
 2015 162    60  15.20  28.30  15.60 -99.000   3.424   2.525   0.977 -99.000 -99.000 -99.000   3.403   2.525   0.878   0.000   0.005  211.18  201.92   81.47  120.44    0.00    0.10   0.098   0.097   0.098   0.102   0.098   0.097   0.096   0.096   0.096   0.253
 2015 163    61  13.20  27.70  16.80 -99.000   2.980   2.180   0.873 -99.000 -99.000 -99.000   2.962   2.180   0.782   0.000   0.005  214.16  204.88   83.65  121.23    0.00    0.10   0.089   0.087   0.088   0.091   0.090   0.086   0.084   0.084   0.083   0.218
 2015 164    62  15.00  28.70  14.70 -99.000   3.375   2.448   1.017 -99.000 -99.000 -99.000   3.355   2.448   0.907   0.000   0.005  217.53  208.23   86.10  122.13    0.00    0.11   0.103   0.101   0.102   0.105   0.106   0.100   0.097   0.097   0.096   0.245
 2015 165    63  15.20  28.80  14.20 -99.000   3.410   2.453   1.055 -99.000 -99.000 -99.000   3.389   2.453   0.937   0.000   0.006  220.94  211.62   88.55  123.07    0.00    0.11   0.103   0.103   0.103   0.108   0.109   0.105   0.103   0.102   0.102   0.245
 2015 166    64  14.90  29.00  15.60 -99.000   3.386   2.417   1.074 -99.000 -99.000 -99.000   3.366   2.417   0.949   0.000   0.006  224.33  214.99   90.97  124.02    0.00    0.12   0.102   0.103   0.103   0.109   0.110   0.107   0.106   0.105   0.105   0.242
 2015 167    65  13.50  28.80  14.90 -99.000   3.044   2.154   0.992 -99.000 -99.000 -99.000   3.025   2.154   0.871   0.000   0.006  227.37  218.01   93.12  124.89    0.00    0.12   0.099   0.097   0.093   0.098   0.099   0.097   0.096   0.096   0.096   0.215
 2015 168    66  11.60  28.60  16.10 -99.000   2.637   1.852   0.881 -99.000 -99.000 -99.000   2.620   1.852   0.768   0.000   0.006  230.01  220.63   94.98  125.66    0.00    0.13   0.090   0.086   0.081   0.085   0.086   0.085   0.085   0.084   0.084   0.185
 2015 169    67  13.40  28.70  15.70 -99.000   3.040   2.115   1.043 -99.000 -99.000 -99.000   3.021   2.115   0.906   0.000   0.006  233.05  223.66   97.09  126.56    0.00    0.14   0.102   0.100   0.096   0.101   0.102   0.102   0.101   0.101   0.101   0.212
 2015 170    68  13.60  27.20  15.40 -99.000   3.025   2.084   1.064 -99.000 -99.000 -99.000   3.007   2.084   0.922   0.000   0.006  236.07  226.66   99.18  127.49    0.00    0.14   0.100   0.101   0.098   0.104   0.104   0.104   0.104   0.104   0.104   0.208
 2015 171    69  12.90  25.90  12.50 -99.000   2.761   1.884   0.994 -99.000 -99.000 -99.000   2.743   1.884   0.859   0.000   0.005  238.84  229.41  101.06  128.34    0.00    0.15   0.699   0.084   0.030   0.017   0.010   0.007   0.005   0.004   0.003   0.188
 2015 172    70  14.00  24.30  14.80 -99.000   2.993   2.028   1.099 -99.000 -99.000 -99.000   2.923   1.976   0.947   0.000   0.005  241.83  232.33  103.04  129.29    0.00    0.15   0.108   0.103   0.099   0.105   0.107   0.107   0.106   0.106   0.106   0.198
 2015 173    71  13.30  26.20  13.00 -99.000   2.875   1.931   1.077 -99.000 -99.000 -99.000   2.857   1.931   0.926   0.000   0.005  244.70  235.19  104.97  130.22    0.00    0.16   0.111   0.101   0.097   0.101   0.103   0.104   0.103   0.103   0.103   0.193
 2015 174    72  14.40  26.30  14.60 -99.000   3.154   2.102   1.204 -99.000 -99.000 -99.000   3.137   2.102   1.035   0.000   0.004  247.86  238.32  107.07  131.25    0.00    0.16   0.117   0.113   0.111   0.113   0.116   0.117   0.116   0.116   0.116   0.210
 2015 175    73  11.90  26.20  13.10 -99.000   2.572   1.699   1.001 -99.000 -99.000 -99.000   2.557   1.699   0.858   0.000   0.004  250.43  240.88  108.77  132.11    0.00    0.17   0.093   0.094   0.092   0.094   0.096   0.097   0.097   0.097   0.097   0.170
 2015 176    74  15.50  26.90  12.40 -99.000   3.359   2.472   1.330 -99.000 -99.000 -99.000   3.156   2.287   0.869   0.000   0.004  253.79  244.04  111.06  132.98    0.00    0.17   0.709   0.084   0.030   0.016   0.010   0.007   0.005   0.004   0.003   0.229
 2015 177    75  13.00  25.50  12.10 -99.000   2.763   1.793   1.116 -99.000 -99.000 -99.000   2.384   1.430   0.954   0.000   0.003  256.55  246.42  112.49  133.93    0.00    0.17   0.109   0.104   0.100   0.104   0.107   0.108   0.107   0.107   0.107   0.143
 2015 178    76  13.70  24.70  11.90 -99.000   2.886   1.859   1.185 -99.000 -99.000 -99.000   2.871   1.859   1.011   0.000   0.003  259.44  249.29  114.34  134.95    0.00    0.18   0.122   0.112   0.106   0.108   0.112   0.113   0.113   0.113   0.113   0.186
 2015 179    77  14.00  25.50  11.20 -99.000   2.959   1.894   1.232 -99.000 -99.000 -99.000   2.944   1.894   1.049   0.000   0.003  262.40  252.23  116.24  136.00    0.00    0.18   0.120   0.117   0.112   0.113   0.117   0.118   0.118   0.118   0.118   0.189
 2015 180    78  15.30  26.30  12.70 -99.000   3.304   2.102   1.393 -99.000 -99.000 -99.000   3.288   2.102   1.186   0.000   0.003  265.70  255.52  118.34  137.18    0.00    0.18   0.131   0.132   0.127   0.128   0.132   0.134   0.134   0.134   0.134   0.210
 2015 181    79  14.90  26.70  12.40 -99.000   3.226   2.339   1.390 -99.000 -99.000 -99.000   2.613   1.755   0.859   0.000   0.003  268.93  258.14  120.10  138.04    0.00    0.19   0.701   0.084   0.030   0.016   0.010   0.007   0.005   0.004   0.003   0.175
 2015 182    80  14.00  28.60  12.40 -99.000   3.100   2.194   1.386 -99.000 -99.000 -99.000   1.982   1.162   0.820   0.000   0.002  272.03  260.12  121.26  138.86    0.00    0.19   0.664   0.082   0.029   0.016   0.010   0.007   0.005   0.004   0.003   0.116
 2015 183    81  14.10  28.00  13.60 -99.000   3.128   2.192   1.417 -99.000 -99.000 -99.000   1.731   0.938   0.793   0.000   0.003  275.16  261.85  122.20  139.65    0.00    0.19   0.639   0.081   0.029   0.016   0.010   0.007   0.005   0.004   0.003   0.094
 2015 184    82  14.60  28.10  13.20 -99.000   3.231   2.246   1.480 -99.000 -99.000 -99.000   1.562   0.793   0.770   0.000   0.003  278.39  263.41  122.99  140.42    0.00    0.19   0.617   0.080   0.029   0.016   0.010   0.007   0.005   0.004   0.003   0.079
 2015 185    83  15.40  28.90  12.10 -99.000   3.410   2.359   1.571 -99.000 -99.000 -99.000   1.458   0.709   0.749   0.000   0.003  281.80  264.87  123.70  141.17    0.00    0.20   0.598   0.079   0.028   0.016   0.010   0.007   0.005   0.004   0.003   0.071
 2015 186    84  12.50  29.10  10.70 -99.000   2.758   1.616   1.509 -99.000 -99.000 -99.000   1.367   0.637   0.730   0.000   0.002  284.56  266.24  124.34  141.90    0.00    0.20   0.580   0.078   0.028   0.016   0.010   0.007   0.005   0.004   0.003   0.064
 2015 187    85  10.20  28.60  10.80 -99.000   2.235   1.080   1.407 -99.000 -99.000 -99.000   1.289   0.577   0.712   0.000   0.002  286.79  267.53  124.91  142.61    0.00    0.20   0.563   0.077   0.028   0.016   0.010   0.007   0.005   0.004   0.003   0.058
 2015 188    86   5.20  23.90  13.10 -99.000   1.093   0.426   0.790 -99.000 -99.000 -99.000   1.049   0.426   0.623   0.000   0.010  287.88  268.57  125.34  143.24    0.00    0.21   0.490   0.068   0.025   0.014   0.009   0.006   0.004   0.003   0.003   0.043
 2015 189    87   1.80  18.60  13.90 -99.000   0.355   0.109   0.282 -99.000 -99.000 -99.000   0.317   0.109   0.208   0.000   0.014  288.24  268.89  125.45  143.44    0.00    0.22   0.164   0.022   0.008   0.005   0.003   0.002   0.001   0.001   0.001   0.011
 2015 190    88  11.30  26.00  12.10 -99.000   2.406   0.582   2.033 -99.000 -99.000 -99.000   1.208   0.498   0.711   0.000   0.148  290.64  270.10  125.95  144.15    0.00    0.37   0.564   0.075   0.027   0.015   0.010   0.007   0.005   0.004   0.003   0.050
 2015 191    89  16.40  29.30  12.30 -99.000   3.626   0.679   3.205 -99.000 -99.000 -99.000   1.144   0.450   0.694   0.000   0.110  294.27  271.24  126.40  144.85    0.00    0.48   0.549   0.075   0.027   0.015   0.010   0.007   0.005   0.004   0.003   0.045
 2015 192    90  14.70  29.60  13.60 -99.000   3.285   0.473   2.999 -99.000 -99.000 -99.000   1.085   0.407   0.679   0.000   0.081  297.56  272.33  126.80  145.53    0.00    0.56   0.534   0.074   0.027   0.015   0.010   0.007   0.005   0.004   0.003   0.041
 2015 193    91  14.00  29.50  12.20 -99.000   3.084   0.340   2.882 -99.000 -99.000 -99.000   1.003   0.340   0.664   0.000   0.058  300.64  273.33  127.14  146.19    0.00    0.62   0.520   0.073   0.027   0.015   0.010   0.007   0.005   0.004   0.003   0.034

*DSSAT Cropping System Model Ver. 4.7.5.007 -  MAR 01, 2026 21:19:28
!                                                                                                                                                                                        Soil evaporation (mm/d) by soil depth (cm):
!                                                                                                                                                                                       0-10   10-20   20-30   30-40   40-50   50-60   60-70   70-80   80-90
@YEAR DOY   DAS   SRAA  TMAXA  TMINA    REFA    EOAA    EOPA    EOSA    KCAA    KCBA    KEAA    ETAA    EPAA    ESAA    EFAA    EMAA    EOAC    ETAC    EPAC    ESAC    EFAC    EMAC    ES1D    ES2D    ES3D    ES4D    ES5D    ES6D    ES7D    ES8D    ES9D   TRWUD
 2015 126     1   8.70  26.60  16.10 -99.000   2.235   0.000   2.235 -99.000 -99.000 -99.000   2.235   0.000   2.235   0.000   0.000    2.23    2.23    0.00    2.23    0.00    0.00   0.257   0.245   0.246   0.255   0.255   0.255   0.244   0.240   0.239   0.000
 2015 127     2  16.20  27.70  15.80 -99.000   4.264   0.000   4.264 -99.000 -99.000 -99.000   4.264   0.000   4.264   0.000   0.000    6.50    6.50    0.00    6.50    0.00    0.00   1.515   0.668   0.475   0.385   0.322   0.280   0.233   0.203   0.183   0.000
 2015 128     3  14.50  28.40  17.20 -99.000   3.865   0.000   3.865 -99.000 -99.000 -99.000   3.210   0.000   3.210   0.000   0.000   10.36    9.71    0.00    9.71    0.00    0.00   0.356   0.353   0.357   0.369   0.369   0.369   0.354   0.344   0.340   0.000
 2015 129     4  13.50  26.50  16.30 -99.000   3.486   0.000   3.486 -99.000 -99.000 -99.000   3.126   0.000   3.126   0.000   0.000   13.85   12.84    0.00   12.84    0.00    0.00   0.343   0.343   0.344   0.357   0.357   0.357   0.347   0.340   0.338   0.000
 2015 130     5  16.40  28.20  15.40 -99.000   4.281   0.000   4.281 -99.000 -99.000 -99.000   3.203   0.000   3.203   0.000   0.000   18.13   16.04    0.00   16.04    0.00    0.00   0.364   0.355   0.359   0.370   0.370   0.363   0.348   0.339   0.335   0.000
 2015 131     6   4.60  21.40  15.80 -99.000   1.114   0.012   1.102 -99.000 -99.000 -99.000   1.114   0.012   1.102   0.000   0.000   19.25   17.15    0.01   17.14    0.00    0.00   0.388   0.172   0.123   0.099   0.083   0.071   0.061   0.055   0.050   0.001
 2015 132     7   9.00  22.30  17.20 -99.000   2.229   0.029   2.200 -99.000 -99.000 -99.000   2.229   0.029   2.200   0.000   0.000   21.47   19.38    0.04   19.34    0.00    0.00   0.242   0.237   0.239   0.247   0.247   0.247   0.247   0.247   0.247   0.003
 2015 133     8  10.90  24.80  15.60 -99.000   2.735   0.044   2.690 -99.000 -99.000 -99.000   2.735   0.044   2.690   0.000   0.000   24.21   22.12    0.09   22.03    0.00    0.00   0.289   0.291   0.291   0.303   0.303   0.303   0.303   0.303   0.303   0.004
 2015 134     9  12.90  26.90  14.20 -99.000   3.272   0.095   3.206 -99.000 -99.000 -99.000   3.271   0.095   3.177   0.000   0.000   27.48   25.39    0.18   25.21    0.00    0.00   0.341   0.345   0.343   0.358   0.358   0.358   0.358   0.358   0.358   0.009
 2015 135    10  12.10  26.20  13.40 -99.000   3.015   0.072   2.942 -99.000 -99.000 -99.000   3.014   0.072   2.942   0.000   0.000   30.50   28.40    0.25   28.15    0.00    0.00   0.328   0.322   0.325   0.336   0.336   0.330   0.323   0.322   0.321   0.007
 2015 136    11  10.00  24.90  14.10 -99.000   2.482   0.070   2.411 -99.000 -99.000 -99.000   2.481   0.070   2.411   0.000   0.000   32.98   30.88    0.32   30.56    0.00    0.00   0.273   0.265   0.268   0.276   0.276   0.270   0.262   0.260   0.260   0.007
 2015 137    12  15.70  27.00  15.10 -99.000   4.009   0.226   3.878 -99.000 -99.000 -99.000   3.369   0.226   3.143   0.000   0.000   36.99   34.25    0.55   33.70    0.00    0.00   0.350   0.345   0.346   0.359   0.359   0.352   0.346   0.344   0.343   0.023
 2015 138    13  14.30  27.50  16.10 -99.000   3.687   0.236   3.551 -99.000 -99.000 -99.000   3.313   0.236   3.078   0.000   0.000   40.67   37.57    0.78   36.78    0.00    0.00   0.338   0.337   0.336   0.350   0.350   0.346   0.342   0.340   0.339   0.024
 2015 139    14  12.80  27.00  19.80 -99.000   3.362   0.259   3.211 -99.000 -99.000 -99.000   3.356   0.259   3.096   0.000   0.000   44.04   40.92    1.04   39.88    0.00    0.00   0.360   0.351   0.337   0.348   0.347   0.343   0.339   0.336   0.335   0.026
 2015 140    15  14.00  26.40  16.80 -99.000   3.584   0.342   3.383 -99.000 -99.000 -99.000   3.456   0.342   3.114   0.000   0.000   47.62   44.38    1.39   42.99    0.00    0.00   0.372   0.367   0.341   0.348   0.344   0.341   0.336   0.332   0.332   0.034
 2015 141    16  15.50  26.70  15.70 -99.000   3.927   0.446   3.662 -99.000 -99.000 -99.000   3.515   0.446   3.069   0.000   0.000   51.55   47.89    1.83   46.06    0.00    0.00   0.353   0.352   0.335   0.344   0.342   0.339   0.336   0.334   0.334   0.045
 2015 142    17  13.50  26.60  16.10 -99.000   3.407   0.269   3.136 -99.000 -99.000 -99.000   3.405   0.269   3.136   0.000   0.000   54.95   51.30    2.10   49.20    0.00    0.00   0.365   0.356   0.352   0.361   0.358   0.340   0.336   0.333   0.333   0.027
 2015 143    18  12.20  26.80  18.70 -99.000   3.151   0.298   2.852 -99.000 -99.000 -99.000   3.149   0.298   2.851   0.000   0.000   58.11   54.44    2.40   52.05    0.00    0.00   0.328   0.319   0.323   0.333   0.330   0.310   0.304   0.302   0.302   0.030
 2015 144    19  14.70  28.20  18.10 -99.000   3.809   0.703   3.371 -99.000 -99.000 -99.000   3.806   0.703   3.103   0.000   0.000   61.92   58.25    3.10   55.15    0.00    0.00   0.348   0.344   0.345   0.358   0.356   0.340   0.337   0.337   0.337   0.070
 2015 145    20  16.20  28.40  19.50 -99.000   4.224   0.886   3.667 -99.000 -99.000 -99.000   3.793   0.742   3.051   0.000   0.000   66.14   62.04    3.84   58.20    0.00    0.00   0.335   0.335   0.335   0.349   0.348   0.338   0.337   0.337   0.337   0.074
 2015 146    21  16.40  28.20  18.90 -99.000   4.234   0.927   3.648 -99.000 -99.000 -99.000   3.595   0.582   3.013   0.000   0.000   70.37   65.64    4.42   61.21    0.00    0.00   0.325   0.330   0.328   0.343   0.343   0.337   0.337   0.335   0.335   0.058
 2015 147    22  14.10  28.30  18.90 -99.000   3.638   0.580   3.124 -99.000 -99.000 -99.000   3.580   0.526   3.054   0.000   0.000   74.01   69.22    4.95   64.27    0.00    0.00   0.353   0.347   0.336   0.343   0.340   0.335   0.335   0.332   0.332   0.053
 2015 148    23  14.20  27.70  12.20 -99.000   3.476   0.519   2.954 -99.000 -99.000 -99.000   3.472   0.519   2.953   0.000   0.000   77.49   72.69    5.47   67.22    0.00    0.00   0.349   0.340   0.325   0.328   0.325   0.322   0.322   0.321   0.319   0.052
 2015 149    24  14.70  27.20  10.40 -99.000   3.497   0.602   2.892 -99.000 -99.000 -99.000   3.492   0.602   2.890   0.000   0.000   80.99   76.18    6.07   70.11    0.00    0.00   0.347   0.335   0.325   0.321   0.315   0.313   0.313   0.313   0.311   0.060
 2015 150    25  16.40  29.00  11.00 -99.000   4.001   0.906   3.238 -99.000 -99.000 -99.000   3.995   0.906   3.089   0.000   0.000   84.99   80.18    6.98   73.20    0.00    0.00   0.363   0.354   0.348   0.344   0.338   0.336   0.336   0.336   0.335   0.091
 2015 151    26  16.50  30.70  12.00 -99.000   4.111   1.055   3.264 -99.000 -99.000 -99.000   4.104   1.055   3.050   0.000   0.000   89.10   84.28    8.03   76.25    0.00    0.00   0.345   0.341   0.337   0.340   0.337   0.337   0.337   0.337   0.337   0.105
 2015 152    27  14.80  29.60  12.40 -99.000   3.620   0.854   2.770 -99.000 -99.000 -99.000   3.614   0.854   2.760   0.000   0.000   92.72   87.90    8.89   79.01    0.00    0.00   0.327   0.313   0.301   0.306   0.303   0.303   0.303   0.303   0.303   0.085
 2015 153    28  15.30  28.70  16.60 -99.000   3.823   1.001   2.825 -99.000 -99.000 -99.000   3.816   1.001   2.814   0.000   0.000   96.54   91.71    9.89   81.82    0.00    0.00   0.334   0.319   0.304   0.313   0.310   0.310   0.310   0.309   0.307   0.100
 2015 154    29  14.20  27.70  16.20 -99.000   3.461   1.051   2.413 -99.000 -99.000 -99.000   3.454   1.051   2.403   0.000   0.000  100.00   95.16   10.94   84.23    0.00    0.00   0.274   0.267   0.259   0.269   0.269   0.269   0.268   0.266   0.262   0.105
 2015 155    30  16.10  27.10  15.40 -99.000   3.838   1.339   2.500 -99.000 -99.000 -99.000   3.720   1.231   2.489   0.000   0.000  103.84   98.88   12.17   86.72    0.00    0.00   0.276   0.275   0.269   0.281   0.281   0.281   0.279   0.276   0.272   0.123
 2015 156    31  15.40  27.10  15.40 -99.000   3.657   1.333   2.325 -99.000 -99.000 -99.000   3.387   1.072   2.315   0.000   0.000  107.50  102.27   13.24   89.03    0.00    0.00   0.272   0.267   0.253   0.258   0.256   0.256   0.255   0.251   0.248   0.107
 2015 157    32  15.60  27.80  15.60 -99.000   3.756   1.397   2.360 -99.000 -99.000 -99.000   3.746   1.397   2.350   0.000   0.000  111.25  106.02   14.64   91.38    0.00    0.00   0.281   0.274   0.257   0.261   0.259   0.259   0.258   0.252   0.248   0.140
 2015 158    33  15.20  27.70  15.90 -99.000   3.627   1.492   2.136 -99.000 -99.000 -99.000   3.617   1.492   2.126   0.000   0.000  114.88  109.64   16.13   93.51    0.00    0.00   0.243   0.241   0.231   0.239   0.239   0.239   0.239   0.228   0.225   0.149
 2015 159    34  15.10  28.00  14.50 -99.000   3.548   1.564   1.983 -99.000 -99.000 -99.000   3.537   1.564   1.973   0.000   0.000  118.43  113.17   17.69   95.48    0.00    0.00   0.219   0.221   0.215   0.224   0.224   0.224   0.224   0.213   0.210   0.156
 2015 160    35  16.00  28.30  14.20 -99.000   3.744   1.723   2.021 -99.000 -99.000 -99.000   3.580   1.571   2.008   0.000   0.000  122.17  116.75   19.26   97.49    0.00    0.00   0.234   0.231   0.231   0.228   0.223   0.222   0.222   0.211   0.207   0.157
 2015 161    36  10.80  27.40  14.70 -99.000   2.520   1.156   1.369 -99.000 -99.000 -99.000   2.512   1.156   1.356   0.000   0.000  124.69  119.26   20.42   98.84    0.00    0.00   0.160   0.156   0.158   0.153   0.149   0.148   0.148   0.145   0.138   0.116
 2015 162    37  15.20  28.30  15.60 -99.000   3.574   1.768   1.820 -99.000 -99.000 -99.000   3.562   1.768   1.793   0.000   0.000  128.26  122.83   22.19  100.64    0.00    0.00   0.203   0.201   0.202   0.201   0.199   0.199   0.199   0.199   0.189   0.177
 2015 163    38  13.20  27.70  16.80 -99.000   3.091   1.611   1.491 -99.000 -99.000 -99.000   3.080   1.611   1.470   0.000   0.000  131.36  125.91   23.80  102.11    0.00    0.00   0.171   0.167   0.169   0.168   0.162   0.160   0.159   0.159   0.155   0.161
 2015 164    39  15.00  28.70  14.70 -99.000   3.486   1.909   1.591 -99.000 -99.000 -99.000   3.473   1.909   1.564   0.000   0.000  134.84  129.38   25.71  103.67    0.00    0.00   0.181   0.177   0.179   0.180   0.172   0.170   0.169   0.169   0.167   0.191
 2015 165    40  15.20  28.80  14.20 -99.000   3.504   1.987   1.539 -99.000 -99.000 -99.000   3.490   1.987   1.504   0.000   0.001  138.35  132.87   27.70  105.17    0.00    0.00   0.168   0.167   0.168   0.172   0.167   0.166   0.166   0.166   0.166   0.199
 2015 166    41  14.90  29.00  15.60 -99.000   3.461   2.047   1.440 -99.000 -99.000 -99.000   3.447   2.047   1.399   0.000   0.001  141.81  136.32   29.74  106.57    0.00    0.00   0.152   0.154   0.153   0.159   0.157   0.156   0.156   0.156   0.156   0.205
 2015 167    42  13.50  28.80  14.90 -99.000   3.097   1.909   1.213 -99.000 -99.000 -99.000   3.084   1.909   1.175   0.000   0.001  144.90  139.40   31.65  107.75    0.00    0.00   0.132   0.130   0.132   0.136   0.136   0.129   0.127   0.127   0.126   0.191
 2015 168    43  11.60  28.60  16.10 -99.000   2.677   1.700   1.000 -99.000 -99.000 -99.000   2.665   1.700   0.965   0.000   0.001  147.58  142.07   33.35  108.71    0.00    0.01   0.110   0.107   0.108   0.112   0.113   0.106   0.104   0.103   0.103   0.170
 2015 169    44  13.40  28.70  15.70 -99.000   3.071   2.034   1.065 -99.000 -99.000 -99.000   3.057   2.034   1.024   0.000   0.002  150.65  145.12   35.39  109.74    0.00    0.01   0.113   0.112   0.113   0.118   0.119   0.113   0.112   0.111   0.111   0.203
 2015 170    45  13.60  27.20  15.40 -99.000   3.047   2.079   0.993 -99.000 -99.000 -99.000   3.032   2.079   0.952   0.000   0.002  153.70  148.15   37.46  110.69    0.00    0.01   0.108   0.105   0.107   0.111   0.111   0.105   0.102   0.101   0.101   0.208
 2015 171    46  12.90  25.90  12.50 -99.000   2.778   1.937   0.863 -99.000 -99.000 -99.000   2.763   1.937   0.826   0.000   0.002  156.48  150.92   39.40  111.51    0.00    0.01   0.093   0.092   0.092   0.096   0.096   0.092   0.089   0.088   0.088   0.194
 2015 172    47  14.00  24.30  14.80 -99.000   3.005   2.138   0.894 -99.000 -99.000 -99.000   2.988   2.138   0.850   0.000   0.002  159.48  153.91   41.54  112.37    0.00    0.01   0.094   0.093   0.094   0.098   0.098   0.095   0.093   0.093   0.092   0.214
 2015 173    48  13.30  26.20  13.00 -99.000   2.873   2.080   0.819 -99.000 -99.000 -99.000   2.857   2.080   0.776   0.000   0.003  162.36  156.76   43.62  113.14    0.00    0.02   0.083   0.084   0.084   0.089   0.089   0.088   0.086   0.086   0.086   0.208
 2015 174    49  14.40  26.30  14.60 -99.000   3.151   2.304   0.877 -99.000 -99.000 -99.000   3.134   2.304   0.830   0.000   0.003  165.51  159.90   45.92  113.97    0.00    0.02   0.093   0.092   0.093   0.096   0.096   0.092   0.090   0.089   0.089   0.230
 2015 175    50  11.90  26.20  13.10 -99.000   2.572   1.885   0.713 -99.000 -99.000 -99.000   2.557   1.885   0.672   0.000   0.003  168.08  162.45   47.81  114.64    0.00    0.02   0.076   0.075   0.075   0.078   0.078   0.074   0.072   0.072   0.072   0.188
 2015 176    51  15.50  26.90  12.40 -99.000   3.355   2.481   0.911 -99.000 -99.000 -99.000   3.336   2.481   0.855   0.000   0.003  171.43  165.79   50.29  115.50    0.00    0.03   0.094   0.094   0.094   0.099   0.098   0.095   0.094   0.093   0.093   0.248
 2015 177    52  13.00  25.50  12.10 -99.000   2.757   2.053   0.735 -99.000 -99.000 -99.000   2.740   2.053   0.687   0.000   0.003  174.19  168.53   52.34  116.19    0.00    0.03   0.079   0.077   0.077   0.078   0.078   0.076   0.075   0.074   0.074   0.205
 2015 178    53  13.70  24.70  11.90 -99.000   2.875   2.137   0.771 -99.000 -99.000 -99.000   2.857   2.137   0.720   0.000   0.003  177.07  171.39   54.48  116.91    0.00    0.03   0.083   0.081   0.080   0.081   0.081   0.079   0.079   0.078   0.078   0.214
 2015 179    54  14.00  25.50  11.20 -99.000   2.948   2.193   0.791 -99.000 -99.000 -99.000   2.930   2.193   0.737   0.000   0.003  180.01  174.32   56.67  117.64    0.00    0.04   0.082   0.082   0.081   0.083   0.083   0.082   0.082   0.081   0.081   0.219
 2015 180    55  15.30  26.30  12.70 -99.000   3.292   2.448   0.887 -99.000 -99.000 -99.000   3.273   2.448   0.825   0.000   0.003  183.31  177.59   59.12  118.47    0.00    0.04   0.089   0.090   0.089   0.093   0.093   0.093   0.093   0.092   0.092   0.245
 2015 181    56  14.90  26.70  12.40 -99.000   3.213   2.382   0.876 -99.000 -99.000 -99.000   3.194   2.382   0.812   0.000   0.003  186.52  180.78   61.50  119.28    0.00    0.04   0.091   0.090   0.091   0.094   0.093   0.090   0.088   0.088   0.088   0.238
 2015 182    57  14.00  28.60  12.40 -99.000   3.092   2.283   0.855 -99.000 -99.000 -99.000   3.074   2.283   0.790   0.000   0.004  189.61  183.86   63.78  120.07    0.00    0.05   0.090   0.088   0.089   0.092   0.091   0.087   0.085   0.084   0.084   0.228
 2015 183    58  14.10  28.00  13.60 -99.000   3.120   2.294   0.878 -99.000 -99.000 -99.000   3.102   2.294   0.808   0.000   0.004  192.73  186.96   66.08  120.88    0.00    0.05   0.089   0.088   0.089   0.093   0.093   0.090   0.089   0.088   0.088   0.229
 2015 184    59  14.60  28.10  13.20 -99.000   3.224   2.359   0.923 -99.000 -99.000 -99.000   3.205   2.359   0.846   0.000   0.004  195.96  190.16   68.44  121.72    0.00    0.05   0.097   0.095   0.094   0.096   0.096   0.093   0.092   0.091   0.091   0.236
 2015 185    60  15.40  28.90  12.10 -99.000   3.407   2.480   0.992 -99.000 -99.000 -99.000   3.387   2.480   0.907   0.000   0.004  199.36  193.55   70.92  122.63    0.00    0.06   0.105   0.103   0.100   0.102   0.102   0.100   0.099   0.098   0.098   0.248
 2015 186    61  12.50  29.10  10.70 -99.000   2.740   1.985   0.813 -99.000 -99.000 -99.000   2.723   1.985   0.738   0.000   0.004  202.10  196.27   72.90  123.37    0.00    0.06   0.082   0.082   0.080   0.083   0.083   0.082   0.082   0.082   0.082   0.198
 2015 187    62  10.20  28.60  10.80 -99.000   2.224   1.603   0.671 -99.000 -99.000 -99.000   2.209   1.603   0.606   0.000   0.004  204.33  198.48   74.51  123.98    0.00    0.07   0.065   0.066   0.065   0.068   0.069   0.068   0.068   0.068   0.068   0.160
 2015 188    63   5.20  23.90  13.10 -99.000   1.091   0.782   0.335 -99.000 -99.000 -99.000   1.081   0.782   0.299   0.000   0.005  205.42  199.56   75.29  124.27    0.00    0.07   0.032   0.032   0.032   0.034   0.034   0.034   0.034   0.034   0.034   0.078
 2015 189    64   1.80  18.60  13.90 -99.000   0.355   0.253   0.111 -99.000 -99.000 -99.000   0.349   0.253   0.096   0.000   0.005  205.77  199.91   75.54  124.37    0.00    0.08   0.010   0.010   0.010   0.011   0.011   0.011   0.011   0.011   0.011   0.025
 2015 190    65  11.30  26.00  12.10 -99.000   2.414   1.711   0.767 -99.000 -99.000 -99.000   2.372   1.711   0.661   0.000   0.031  208.19  202.28   77.25  125.03    0.00    0.11   0.072   0.072   0.070   0.074   0.075   0.075   0.074   0.074   0.074   0.171
 2015 191    66  16.40  29.30  12.30 -99.000   3.651   2.569   1.184 -99.000 -99.000 -99.000   3.607   2.569   1.038   0.000   0.027  211.84  205.89   79.82  126.07    0.00    0.13   0.120   0.118   0.110   0.115   0.115   0.115   0.115   0.115   0.115   0.257
 2015 192    67  14.70  29.60  13.60 -99.000   3.322   2.322   1.100 -99.000 -99.000 -99.000   3.283   2.322   0.962   0.000   0.024  215.16  209.17   82.14  127.03    0.00    0.16   0.113   0.110   0.102   0.106   0.106   0.106   0.106   0.106   0.106   0.232
 2015 193    68  14.00  29.50  12.20 -99.000   3.124   2.168   1.057 -99.000 -99.000 -99.000   3.088   2.168   0.920   0.000   0.022  218.28  212.26   84.31  127.95    0.00    0.18   0.103   0.103   0.098   0.103   0.103   0.103   0.103   0.103   0.103   0.217
 2015 194    69  16.70  30.30  12.60 -99.000   3.771   2.601   1.302 -99.000 -99.000 -99.000   3.735   2.601   1.134   0.000   0.020  222.05  216.00   86.91  129.08    0.00    0.20   0.129   0.127   0.126   0.131   0.128   0.124   0.123   0.123   0.123   0.260
 2015 195    70  15.40  29.70  12.70 -99.000   3.461   2.372   1.218 -99.000 -99.000 -99.000   3.428   2.372   1.056   0.000   0.019  225.52  219.42   89.28  130.14    0.00    0.22   0.120   0.118   0.120   0.124   0.120   0.115   0.114   0.113   0.113   0.237
 2015 196    71  16.10  30.00  12.30 -99.000   3.618   2.463   1.297 -99.000 -99.000 -99.000   3.585   2.463   1.122   0.000   0.017  229.13  223.01   91.75  131.26    0.00    0.24   0.123   0.123   0.124   0.130   0.127   0.124   0.123   0.123   0.123   0.246
 2015 197    72  14.30  27.90  13.10 -99.000   3.154   2.132   1.151 -99.000 -99.000 -99.000   3.126   2.132   0.994   0.000   0.015  232.29  226.14   93.88  132.26    0.00    0.25   0.106   0.108   0.108   0.114   0.113   0.111   0.111   0.111   0.111   0.213
 2015 198    73  16.70  27.30  12.40 -99.000   3.637   2.440   1.351 -99.000 -99.000 -99.000   3.609   2.440   1.168   0.000   0.013  235.92  229.74   96.32  133.42    0.00    0.26   0.132   0.131   0.132   0.134   0.131   0.128   0.127   0.127   0.127   0.244
 2015 199    74  14.80  26.20  11.90 -99.000   3.174   2.116   1.198 -99.000 -99.000 -99.000   3.149   2.116   1.033   0.000   0.011  239.10  232.89   98.44  134.46    0.00    0.28   0.119   0.116   0.117   0.118   0.114   0.113   0.112   0.112   0.112   0.212
 2015 200    75  14.50  26.60  13.20 -99.000   3.156   2.091   1.209 -99.000 -99.000 -99.000   3.133   2.091   1.042   0.000   0.010  242.25  236.03  100.53  135.50    0.00    0.29   0.116   0.115   0.116   0.118   0.116   0.115   0.115   0.115   0.115   0.209
 2015 201    76  17.50  28.80  13.80 -99.000   3.926   2.586   1.526 -99.000 -99.000 -99.000   3.901   2.586   1.316   0.000   0.008  246.18  239.93  103.11  136.81    0.00    0.29   0.142   0.144   0.144   0.149   0.148   0.147   0.147   0.147   0.147   0.259
 2015 202    77  13.80  28.60  13.80 -99.000   3.088   2.019   1.219 -99.000 -99.000 -99.000   3.068   2.019   1.048   0.000   0.007  249.27  242.99  105.13  137.86    0.00    0.30   0.110   0.114   0.113   0.119   0.119   0.118   0.118   0.118   0.118   0.202
 2015 203    78  17.50  29.10  15.90 -99.000   4.001   3.032   1.603 -99.000 -99.000 -99.000   2.478   1.624   0.854   0.000   0.007  253.27  245.47  106.76  138.72    0.00    0.31   0.693   0.084   0.031   0.017   0.010   0.007   0.005   0.004   0.003   0.162
 2015 204    79  14.70  29.10  18.10 -99.000   3.416   2.203   1.394 -99.000 -99.000 -99.000   2.368   1.173   1.195   0.000   0.006  256.69  247.84  107.93  139.91    0.00    0.31   0.135   0.135   0.127   0.133   0.133   0.133   0.133   0.133   0.133   0.117
 2015 205    80  17.50  28.50  14.70 -99.000   3.950   2.523   1.642 -99.000 -99.000 -99.000   3.929   2.523   1.407   0.000   0.005  260.64  251.77  110.45  141.32    0.00    0.32   0.167   0.163   0.149   0.154   0.155   0.155   0.155   0.155   0.155   0.252
 2015 206    81  15.00  29.20  16.40 -99.000   3.454   2.194   1.454 -99.000 -99.000 -99.000   3.437   2.194   1.243   0.000   0.005  264.09  255.21  112.65  142.56    0.00    0.32   0.140   0.139   0.132   0.139   0.139   0.139   0.139   0.139   0.138   0.219
 2015 207    82  15.20  29.70  16.40 -99.000   3.518   2.221   1.499 -99.000 -99.000 -99.000   3.501   2.221   1.280   0.000   0.004  267.61  258.71  114.87  143.84    0.00    0.33   0.139   0.141   0.137   0.144   0.144   0.144   0.144   0.144   0.144   0.222
 2015 208    83  17.70  30.20  15.10 -99.000   4.085   2.482   1.857 -99.000 -99.000 -99.000   3.266   1.681   1.585   0.000   0.004  271.69  261.97  116.55  145.43    0.00    0.33   0.181   0.179   0.179   0.179   0.175   0.174   0.174   0.173   0.173   0.168
 2015 209    84  10.20  30.10  13.40 -99.000   2.329   1.370   1.124 -99.000 -99.000 -99.000   2.318   1.370   0.948   0.000   0.003  274.02  264.29  117.92  146.37    0.00    0.33   0.110   0.108   0.109   0.107   0.104   0.103   0.103   0.103   0.102   0.137
 2015 210    85  17.50  30.60  14.10 -99.000   4.031   2.375   1.961 -99.000 -99.000 -99.000   4.012   2.375   1.638   0.000   0.005  278.05  268.30  120.29  148.01    0.00    0.34   0.184   0.182   0.184   0.184   0.181   0.181   0.181   0.181   0.181   0.237
 2015 211    86  17.70  29.20  15.70 -99.000   4.058   2.380   1.989 -99.000 -99.000 -99.000   4.038   2.380   1.659   0.000   0.006  282.11  272.34  122.67  149.67    0.00    0.35   0.180   0.182   0.182   0.188   0.185   0.186   0.186   0.185   0.185   0.238
 2015 212    87  18.20  29.80  14.50 -99.000   4.161   2.717   2.055 -99.000 -99.000 -99.000   2.737   1.858   0.879   0.000   0.005  286.27  275.08  124.53  150.55    0.00    0.35   0.716   0.086   0.031   0.017   0.010   0.007   0.005   0.004   0.003   0.186
 2015 213    88  16.70  29.30  14.40 -99.000   3.813   2.081   2.200 -99.000 -99.000 -99.000   2.254   1.412   0.842   0.000   0.004  290.08  277.33  125.94  151.39    0.00    0.36   0.681   0.084   0.031   0.017   0.010   0.007   0.005   0.004   0.003   0.141
 2015 214    89  18.50  29.10  13.10 -99.000   4.162   1.852   2.787 -99.000 -99.000 -99.000   1.970   1.156   0.814   0.000   0.004  294.25  279.30  127.10  152.21    0.00    0.36   0.654   0.083   0.030   0.017   0.010   0.007   0.005   0.004   0.003   0.116
 2015 215    90  15.90  29.20  15.20 -99.000   3.627   1.293   2.730 -99.000 -99.000 -99.000   1.763   0.973   0.790   0.000   0.011  297.87  281.07  128.07  153.00    0.00    0.37   0.632   0.082   0.030   0.017   0.010   0.007   0.005   0.004   0.003   0.097
 2015 216    91  18.60  29.60  15.40 -99.000   4.254   1.196   3.466 -99.000 -99.000 -99.000   1.606   0.838   0.769   0.000   0.015  302.13  282.67  128.91  153.76    0.00    0.39   0.612   0.081   0.029   0.017   0.010   0.007   0.005   0.004   0.003   0.084
 2015 217    92  18.60  29.90  16.50 -99.000   4.288   0.941   3.693 -99.000 -99.000 -99.000   1.476   0.727   0.749   0.000   0.016  306.42  284.15  129.63  154.51    0.00    0.40   0.594   0.080   0.029   0.017   0.010   0.007   0.005   0.004   0.003   0.073
 2015 218    93  18.70  30.00  16.50 -99.000   4.302   0.730   3.855 -99.000 -99.000 -99.000   1.369   0.638   0.731   0.000   0.015  310.72  285.52  130.27  155.24    0.00    0.42   0.578   0.079   0.029   0.017   0.010   0.007   0.005   0.004   0.003   0.064
 2015 219    94  18.80  30.70  16.90 -99.000   4.360   0.567   4.019 -99.000 -99.000 -99.000   1.280   0.566   0.714   0.000   0.013  315.08  286.80  130.84  155.96    0.00    0.43   0.562   0.078   0.029   0.016   0.010   0.007   0.005   0.004   0.003   0.057
 2015 220    95  18.50  30.50  13.60 -99.000   4.166   0.414   3.922 -99.000 -99.000 -99.000   1.112   0.414   0.698   0.000   0.011  319.24  287.91  131.25  156.66    0.00    0.44   0.547   0.077   0.028   0.016   0.010   0.007   0.005   0.004   0.003   0.041

*DSSAT Cropping System Model Ver. 4.7.5.007 -  MAR 01, 2026 21:19:28
!                                                                                                                                                                                        Soil evaporation (mm/d) by soil depth (cm):
!                                                                                                                                                                                       0-10   10-20   20-30   30-40   40-50   50-60   60-70   70-80   80-90
@YEAR DOY   DAS   SRAA  TMAXA  TMINA    REFA    EOAA    EOPA    EOSA    KCAA    KCBA    KEAA    ETAA    EPAA    ESAA    EFAA    EMAA    EOAC    ETAC    EPAC    ESAC    EFAC    EMAC    ES1D    ES2D    ES3D    ES4D    ES5D    ES6D    ES7D    ES8D    ES9D   TRWUD
 2015 148     1  14.20  27.70  12.20 -99.000   3.584   0.000   3.584 -99.000 -99.000 -99.000   3.119   0.000   3.119   0.000   0.000    3.58    3.12    0.00    3.12    0.00    0.00   0.355   0.350   0.351   0.360   0.345   0.341   0.340   0.339   0.339   0.000
 2015 149     2  14.70  27.20  10.40 -99.000   3.671   0.000   3.671 -99.000 -99.000 -99.000   3.141   0.000   3.141   0.000   0.000    7.25    6.26    0.00    6.26    0.00    0.00   0.365   0.355   0.359   0.365   0.345   0.339   0.338   0.337   0.337   0.000
 2015 150     3  16.40  29.00  11.00 -99.000   4.190   0.000   4.190 -99.000 -99.000 -99.000   3.084   0.000   3.084   0.000   0.000   11.44    9.34    0.00    9.34    0.00    0.00   0.349   0.345   0.345   0.354   0.341   0.337   0.337   0.337   0.337   0.000
 2015 151     4  16.50  30.70  12.00 -99.000   4.323   0.000   4.323 -99.000 -99.000 -99.000   3.046   0.000   3.046   0.000   0.000   15.77   12.39    0.00   12.39    0.00    0.00   0.338   0.337   0.336   0.347   0.338   0.337   0.337   0.337   0.337   0.000
 2015 152     5  14.80  29.60  12.40 -99.000   3.833   0.000   3.833 -99.000 -99.000 -99.000   3.017   0.000   3.017   0.000   0.000   19.60   15.41    0.00   15.41    0.00    0.00   0.331   0.332   0.330   0.342   0.337   0.337   0.336   0.335   0.335   0.000
 2015 153     6  15.30  28.70  16.60 -99.000   4.033   0.079   3.988 -99.000 -99.000 -99.000   3.066   0.079   2.987   0.000   0.000   23.63   18.47    0.08   18.39    0.00    0.00   0.325   0.329   0.326   0.339   0.336   0.335   0.333   0.332   0.332   0.008
 2015 154     7  14.20  27.70  16.20 -99.000   3.683   0.091   3.631 -99.000 -99.000 -99.000   0.985   0.091   0.894   0.000   0.000   27.32   19.46    0.17   19.29    0.00    0.00   0.730   0.086   0.031   0.017   0.010   0.007   0.005   0.004   0.003   0.009
 2015 155     8  16.10  27.10  15.40 -99.000   4.111   0.128   4.038 -99.000 -99.000 -99.000   3.181   0.128   3.053   0.000   0.000   31.43   22.64    0.30   22.34    0.00    0.00   0.350   0.347   0.350   0.351   0.337   0.332   0.330   0.328   0.328   0.013
 2015 156     9  15.40  27.10  15.40 -99.000   3.971   0.149   3.886 -99.000 -99.000 -99.000   3.252   0.149   3.103   0.000   0.000   35.40   25.89    0.45   25.44    0.00    0.00   0.365   0.355   0.358   0.356   0.339   0.334   0.333   0.332   0.331   0.015
 2015 157    10  15.60  27.80  15.60 -99.000   4.043   0.181   3.939 -99.000 -99.000 -99.000   3.252   0.181   3.071   0.000   0.000   39.44   29.14    0.63   28.52    0.00    0.00   0.349   0.344   0.345   0.348   0.337   0.337   0.337   0.337   0.337   0.018
 2015 158    11  15.20  27.70  15.90 -99.000   3.929   0.207   3.810 -99.000 -99.000 -99.000   3.244   0.207   3.037   0.000   0.000   43.37   32.39    0.83   31.55    0.00    0.00   0.337   0.337   0.336   0.343   0.337   0.337   0.337   0.337   0.336   0.021
 2015 159    12  15.10  28.00  14.50 -99.000   3.863   0.233   3.728 -99.000 -99.000 -99.000   3.240   0.233   3.007   0.000   0.000   47.23   35.63    1.07   34.56    0.00    0.00   0.329   0.332   0.329   0.339   0.337   0.336   0.335   0.335   0.333   0.023
 2015 160    13  16.00  28.30  14.20 -99.000   4.085   0.296   3.913 -99.000 -99.000 -99.000   3.370   0.286   3.084   0.000   0.000   51.32   39.00    1.35   37.64    0.00    0.00   0.356   0.349   0.351   0.357   0.342   0.335   0.332   0.332   0.330   0.029
 2015 161    14  10.80  27.40  14.70 -99.000   2.761   0.124   2.636 -99.000 -99.000 -99.000   2.760   0.124   2.636   0.000   0.000   54.08   41.76    1.48   40.28    0.00    0.00   0.308   0.299   0.303   0.308   0.290   0.284   0.282   0.282   0.281   0.012
 2015 162    15  15.20  28.30  15.60 -99.000   3.930   0.366   3.715 -99.000 -99.000 -99.000   3.449   0.366   3.083   0.000   0.000   58.01   45.21    1.84   43.36    0.00    0.00   0.349   0.344   0.345   0.354   0.340   0.338   0.338   0.338   0.338   0.037
 2015 163    16  13.20  27.70  16.80 -99.000   3.402   0.358   3.176 -99.000 -99.000 -99.000   3.400   0.358   3.042   0.000   0.000   61.41   48.61    2.20   46.40    0.00    0.00   0.336   0.336   0.335   0.347   0.338   0.337   0.337   0.337   0.337   0.036
 2015 164    17  15.00  28.70  14.70 -99.000   3.827   0.515   3.517 -99.000 -99.000 -99.000   3.473   0.463   3.010   0.000   0.000   65.24   52.08    2.67   49.41    0.00    0.00   0.328   0.332   0.329   0.342   0.337   0.337   0.335   0.335   0.335   0.046
 2015 165    18  15.20  28.80  14.20 -99.000   3.859   0.545   3.530 -99.000 -99.000 -99.000   3.489   0.404   3.085   0.000   0.000   69.10   55.57    3.07   52.50    0.00    0.00   0.355   0.348   0.351   0.358   0.342   0.336   0.332   0.332   0.332   0.040
 2015 166    19  14.90  29.00  15.60 -99.000   3.862   0.557   3.525 -99.000 -99.000 -99.000   3.678   0.557   3.120   0.000   0.000   72.96   59.25    3.63   55.62    0.00    0.00   0.364   0.354   0.358   0.364   0.343   0.337   0.334   0.334   0.334   0.056
 2015 167    20  13.50  28.80  14.90 -99.000   3.445   0.368   3.083 -99.000 -99.000 -99.000   3.442   0.368   3.075   0.000   0.000   76.41   62.69    3.99   58.69    0.00    0.00   0.347   0.343   0.344   0.353   0.339   0.337   0.337   0.337   0.337   0.037
 2015 168    21  11.60  28.60  16.10 -99.000   2.959   0.372   2.585 -99.000 -99.000 -99.000   2.956   0.372   2.584   0.000   0.000   79.36   65.65    4.37   61.28    0.00    0.00   0.285   0.285   0.285   0.295   0.287   0.287   0.287   0.287   0.286   0.037
 2015 169    22  13.40  28.70  15.70 -99.000   3.388   0.510   2.875 -99.000 -99.000 -99.000   3.384   0.510   2.874   0.000   0.000   82.75   69.03    4.88   64.15    0.00    0.00   0.313   0.316   0.314   0.326   0.322   0.322   0.321   0.321   0.319   0.051
 2015 170    23  13.60  27.20  15.40 -99.000   3.354   0.566   2.786 -99.000 -99.000 -99.000   3.336   0.552   2.784   0.000   0.000   86.11   72.36    5.43   66.94    0.00    0.00   0.301   0.305   0.303   0.316   0.314   0.314   0.311   0.311   0.309   0.055
 2015 171    24  12.90  25.90  12.50 -99.000   3.050   0.845   2.495 -99.000 -99.000 -99.000   1.418   0.540   0.878   0.000   0.000   89.16   73.78    5.97   67.82    0.00    0.00   0.717   0.085   0.031   0.017   0.010   0.007   0.005   0.004   0.003   0.054
 2015 172    25  14.00  24.30  14.80 -99.000   3.302   0.928   2.691 -99.000 -99.000 -99.000   1.361   0.507   0.854   0.000   0.000   92.46   75.14    6.47   68.67    0.00    0.00   0.693   0.084   0.031   0.017   0.010   0.007   0.005   0.004   0.003   0.051
 2015 173    26  13.30  26.20  13.00 -99.000   3.158   0.590   2.567 -99.000 -99.000 -99.000   3.050   0.487   2.563   0.000   0.000   95.62   78.19    6.96   71.23    0.00    0.00   0.292   0.294   0.280   0.287   0.284   0.284   0.281   0.281   0.279   0.049
 2015 174    27  14.40  26.30  14.60 -99.000   3.498   0.676   2.821 -99.000 -99.000 -99.000   3.493   0.676   2.817   0.000   0.000   99.12   81.69    7.64   74.05    0.00    0.00   0.339   0.329   0.307   0.313   0.310   0.310   0.306   0.303   0.300   0.068
 2015 175    28  11.90  26.20  13.10 -99.000   2.824   0.644   2.178 -99.000 -99.000 -99.000   2.819   0.644   2.174   0.000   0.000  101.94   84.51    8.28   76.22    0.00    0.00   0.251   0.248   0.236   0.244   0.244   0.244   0.241   0.234   0.232   0.064
 2015 176    29  15.50  26.90  12.40 -99.000   3.667   0.912   2.754 -99.000 -99.000 -99.000   3.660   0.912   2.748   0.000   0.000  105.61   88.17    9.19   78.97    0.00    0.00   0.309   0.309   0.299   0.312   0.312   0.312   0.307   0.295   0.293   0.091
 2015 177    30  13.00  25.50  12.10 -99.000   3.001   0.794   2.210 -99.000 -99.000 -99.000   2.995   0.794   2.201   0.000   0.000  108.61   91.16    9.99   81.17    0.00    0.00   0.257   0.251   0.250   0.260   0.249   0.243   0.237   0.228   0.226   0.079
 2015 178    31  13.70  24.70  11.90 -99.000   3.128   0.902   2.235 -99.000 -99.000 -99.000   3.121   0.902   2.219   0.000   0.000  111.74   94.28   10.89   83.39    0.00    0.00   0.258   0.252   0.255   0.263   0.249   0.242   0.237   0.232   0.230   0.090
 2015 179    32  14.00  25.50  11.20 -99.000   3.183   1.021   2.173 -99.000 -99.000 -99.000   3.175   1.021   2.154   0.000   0.000  114.92   97.46   11.91   85.55    0.00    0.00   0.241   0.239   0.240   0.250   0.240   0.236   0.236   0.236   0.235   0.102
 2015 180    33  15.30  26.30  12.70 -99.000   3.532   1.244   2.298 -99.000 -99.000 -99.000   3.523   1.244   2.278   0.000   0.000  118.45  100.98   13.15   87.83    0.00    0.00   0.250   0.250   0.250   0.262   0.255   0.253   0.253   0.253   0.253   0.124
 2015 181    34  14.90  26.70  12.40 -99.000   3.423   1.346   2.085 -99.000 -99.000 -99.000   3.413   1.346   2.067   0.000   0.000  121.87  104.39   14.50   89.89    0.00    0.00   0.236   0.232   0.234   0.242   0.229   0.225   0.223   0.223   0.223   0.135
 2015 182    35  14.00  28.60  12.40 -99.000   3.293   1.340   1.961 -99.000 -99.000 -99.000   3.284   1.340   1.944   0.000   0.000  125.17  107.68   15.84   91.84    0.00    0.00   0.224   0.219   0.222   0.228   0.215   0.210   0.209   0.209   0.209   0.134
 2015 183    36  14.10  28.00  13.60 -99.000   3.296   1.437   1.867 -99.000 -99.000 -99.000   3.286   1.437   1.850   0.000   0.000  128.46  110.96   17.28   93.69    0.00    0.00   0.207   0.205   0.206   0.214   0.206   0.203   0.203   0.203   0.203   0.144
 2015 184    37  14.60  28.10  13.20 -99.000   3.383   1.562   1.828 -99.000 -99.000 -99.000   3.372   1.562   1.810   0.000   0.000  131.85  114.34   18.84   95.50    0.00    0.00   0.211   0.205   0.202   0.207   0.200   0.197   0.196   0.196   0.196   0.156
 2015 185    38  15.40  28.90  12.10 -99.000   3.564   1.722   1.849 -99.000 -99.000 -99.000   3.552   1.722   1.829   0.000   0.000  135.41  117.89   20.56   97.33    0.00    0.00   0.213   0.209   0.202   0.207   0.202   0.200   0.199   0.199   0.199   0.172
 2015 186    39  12.50  29.10  10.70 -99.000   2.849   1.439   1.421 -99.000 -99.000 -99.000   2.838   1.439   1.399   0.000   0.000  138.26  120.73   22.00   98.73    0.00    0.00   0.157   0.156   0.152   0.158   0.156   0.155   0.155   0.155   0.155   0.144
 2015 187    40  10.20  28.60  10.80 -99.000   2.302   1.203   1.109 -99.000 -99.000 -99.000   2.293   1.203   1.090   0.000   0.000  140.56  123.02   23.20   99.82    0.00    0.00   0.119   0.120   0.118   0.123   0.122   0.122   0.122   0.122   0.122   0.120
 2015 188    41   5.20  23.90  13.10 -99.000   1.124   0.608   0.523 -99.000 -99.000 -99.000   1.119   0.608   0.512   0.000   0.001  141.69  124.14   23.81  100.33    0.00    0.00   0.055   0.056   0.055   0.058   0.058   0.058   0.058   0.058   0.057   0.061
 2015 189    42   1.80  18.60  13.90 -99.000   0.365   0.203   0.165 -99.000 -99.000 -99.000   0.363   0.203   0.160   0.000   0.001  142.05  124.50   24.01  100.49    0.00    0.00   0.017   0.018   0.017   0.018   0.018   0.018   0.018   0.018   0.018   0.020
 2015 190    43  11.30  26.00  12.10 -99.000   2.477   1.390   1.109 -99.000 -99.000 -99.000   2.465   1.390   1.074   0.000   0.002  144.53  126.97   25.40  101.56    0.00    0.01   0.118   0.118   0.115   0.121   0.121   0.121   0.121   0.120   0.120   0.139
 2015 191    44  16.40  29.30  12.30 -99.000   3.727   2.182   1.580 -99.000 -99.000 -99.000   3.477   1.950   1.528   0.000   0.003  148.25  130.44   27.35  103.09    0.00    0.01   0.174   0.171   0.172   0.178   0.170   0.167   0.166   0.165   0.164   0.195
 2015 192    45  14.70  29.60  13.60 -99.000   3.394   1.986   1.441 -99.000 -99.000 -99.000   3.378   1.986   1.392   0.000   0.003  151.65  133.82   29.34  104.48    0.00    0.01   0.160   0.156   0.158   0.164   0.155   0.151   0.149   0.149   0.149   0.199
 2015 193    46  14.00  29.50  12.20 -99.000   3.176   1.945   1.263 -99.000 -99.000 -99.000   3.160   1.945   1.215   0.000   0.003  154.82  136.98   31.28  105.70    0.00    0.01   0.135   0.134   0.135   0.141   0.136   0.134   0.133   0.133   0.133   0.194
 2015 194    47  16.70  30.30  12.60 -99.000   3.823   2.406   1.453 -99.000 -99.000 -99.000   3.804   2.406   1.398   0.000   0.003  158.65  140.78   33.69  107.09    0.00    0.02   0.159   0.155   0.157   0.163   0.161   0.154   0.150   0.149   0.149   0.241
 2015 195    48  15.40  29.70  12.70 -99.000   3.500   2.256   1.278 -99.000 -99.000 -99.000   3.482   2.256   1.226   0.000   0.003  162.15  144.27   35.95  108.32    0.00    0.02   0.138   0.136   0.137   0.143   0.143   0.136   0.132   0.131   0.130   0.226
 2015 196    49  16.10  30.00  12.30 -99.000   3.649   2.405   1.284 -99.000 -99.000 -99.000   3.630   2.405   1.226   0.000   0.003  165.80  147.90   38.35  109.55    0.00    0.02   0.134   0.134   0.135   0.141   0.142   0.137   0.134   0.134   0.134   0.240
 2015 197    50  14.30  27.90  13.10 -99.000   3.172   2.148   1.060 -99.000 -99.000 -99.000   3.155   2.148   1.007   0.000   0.004  168.97  151.05   40.50  110.55    0.00    0.03   0.108   0.110   0.109   0.115   0.116   0.114   0.112   0.112   0.112   0.215
 2015 198    51  16.70  27.30  12.40 -99.000   3.652   2.511   1.181 -99.000 -99.000 -99.000   3.632   2.511   1.121   0.000   0.004  172.62  154.68   43.01  111.67    0.00    0.03   0.127   0.125   0.126   0.127   0.126   0.124   0.122   0.122   0.122   0.251
 2015 199    52  14.80  26.20  11.90 -99.000   3.184   2.200   1.021 -99.000 -99.000 -99.000   3.165   2.200   0.965   0.000   0.004  175.80  157.85   45.21  112.64    0.00    0.03   0.111   0.109   0.110   0.109   0.107   0.106   0.105   0.104   0.104   0.220
 2015 200    53  14.50  26.60  13.20 -99.000   3.161   2.217   0.984 -99.000 -99.000 -99.000   3.142   2.217   0.925   0.000   0.004  178.97  160.99   47.43  113.56    0.00    0.04   0.103   0.102   0.103   0.104   0.104   0.103   0.102   0.102   0.102   0.222
 2015 201    54  17.50  28.80  13.80 -99.000   3.929   2.776   1.203 -99.000 -99.000 -99.000   3.907   2.776   1.131   0.000   0.004  182.89  164.90   50.20  114.69    0.00    0.04   0.122   0.124   0.123   0.128   0.128   0.127   0.126   0.126   0.126   0.278
 2015 202    55  13.80  28.60  13.80 -99.000   3.088   2.195   0.934 -99.000 -99.000 -99.000   3.070   2.195   0.876   0.000   0.004  185.98  167.97   52.40  115.57    0.00    0.05   0.092   0.095   0.094   0.099   0.100   0.099   0.099   0.099   0.099   0.219
 2015 203    56  17.50  29.10  15.90 -99.000   4.000   3.128   1.202 -99.000 -99.000 -99.000   3.283   2.432   0.850   0.000   0.004  189.98  171.25   54.83  116.42    0.00    0.05   0.689   0.084   0.030   0.017   0.011   0.007   0.005   0.004   0.003   0.243
 2015 204    57  14.70  29.10  18.10 -99.000   3.415   2.433   1.034 -99.000 -99.000 -99.000   2.645   1.682   0.964   0.000   0.004  193.40  173.90   56.51  117.38    0.00    0.06   0.107   0.107   0.108   0.108   0.107   0.107   0.106   0.106   0.106   0.168
 2015 205    58  17.50  28.50  14.70 -99.000   3.945   2.785   1.224 -99.000 -99.000 -99.000   3.923   2.785   1.138   0.000   0.004  197.34  177.82   59.30  118.52    0.00    0.06   0.133   0.130   0.130   0.126   0.124   0.124   0.124   0.124   0.124   0.278
 2015 206    59  15.00  29.20  16.40 -99.000   3.450   2.429   1.085 -99.000 -99.000 -99.000   3.431   2.429   1.003   0.000   0.005  200.79  181.25   61.73  119.53    0.00    0.06   0.112   0.111   0.112   0.112   0.111   0.111   0.111   0.111   0.111   0.243
 2015 207    60  15.20  29.70  16.40 -99.000   3.516   2.459   1.126 -99.000 -99.000 -99.000   3.496   2.459   1.037   0.000   0.005  204.31  184.75   64.18  120.56    0.00    0.07   0.112   0.114   0.113   0.116   0.116   0.116   0.116   0.116   0.116   0.246
 2015 208    61  17.70  30.20  15.10 -99.000   4.081   3.184   1.380 -99.000 -99.000 -99.000   3.992   3.116   0.876   0.000   0.005  208.39  188.74   67.30  121.44    0.00    0.07   0.712   0.086   0.031   0.017   0.010   0.007   0.005   0.004   0.003   0.312
 2015 209    62  10.20  30.10  13.40 -99.000   2.321   1.546   0.838 -99.000 -99.000 -99.000   2.306   1.546   0.760   0.000   0.005  210.71  191.04   68.85  122.20    0.00    0.08   0.084   0.085   0.086   0.087   0.084   0.084   0.084   0.083   0.083   0.155
 2015 210    63  17.50  30.60  14.10 -99.000   4.033   2.679   1.481 -99.000 -99.000 -99.000   4.010   2.679   1.331   0.000   0.007  214.74  195.05   71.53  123.53    0.00    0.09   0.155   0.151   0.152   0.152   0.146   0.145   0.144   0.144   0.144   0.268
 2015 211    64  17.70  29.20  15.70 -99.000   4.061   2.677   1.522 -99.000 -99.000 -99.000   4.038   2.677   1.361   0.000   0.008  218.80  199.09   74.20  124.89    0.00    0.09   0.152   0.151   0.152   0.155   0.151   0.150   0.150   0.150   0.150   0.268
 2015 212    65  18.20  29.80  14.50 -99.000   4.165   2.721   1.594 -99.000 -99.000 -99.000   4.141   2.721   1.419   0.000   0.007  222.97  203.23   76.92  126.31    0.00    0.10   0.153   0.155   0.155   0.161   0.159   0.159   0.159   0.159   0.159   0.272
 2015 213    66  16.70  29.30  14.40 -99.000   3.796   2.456   1.487 -99.000 -99.000 -99.000   3.773   2.456   1.317   0.000   0.007  226.76  207.01   79.38  127.63    0.00    0.11   0.149   0.148   0.149   0.150   0.145   0.144   0.144   0.144   0.144   0.246
 2015 214    67  18.50  29.10  13.10 -99.000   4.162   2.671   1.665 -99.000 -99.000 -99.000   4.138   2.671   1.467   0.000   0.007  230.93  211.14   82.05  129.09    0.00    0.12   0.170   0.166   0.167   0.167   0.161   0.160   0.159   0.159   0.159   0.267
 2015 215    68  15.90  29.20  15.20 -99.000   3.637   2.314   1.484 -99.000 -99.000 -99.000   3.616   2.314   1.303   0.000   0.007  234.56  214.76   84.36  130.40    0.00    0.12   0.145   0.144   0.145   0.148   0.145   0.144   0.144   0.144   0.144   0.231
 2015 216    69  18.60  29.60  15.40 -99.000   4.279   2.696   1.782 -99.000 -99.000 -99.000   4.256   2.696   1.560   0.000   0.007  238.84  219.02   87.06  131.96    0.00    0.13   0.178   0.175   0.177   0.182   0.174   0.170   0.169   0.168   0.168   0.270
 2015 217    70  18.60  29.90  16.50 -99.000   4.337   2.706   1.844 -99.000 -99.000 -99.000   4.315   2.706   1.609   0.000   0.006  243.18  223.33   89.77  133.57    0.00    0.14   0.183   0.180   0.182   0.189   0.180   0.175   0.173   0.173   0.173   0.271
 2015 218    71  18.70  30.00  16.50 -99.000   4.362   2.695   1.894 -99.000 -99.000 -99.000   4.341   2.695   1.646   0.000   0.006  247.54  227.67   92.46  135.21    0.00    0.14   0.181   0.181   0.182   0.191   0.185   0.182   0.181   0.181   0.181   0.269
 2015 219    72  18.80  30.70  16.90 -99.000   4.431   2.708   1.963 -99.000 -99.000 -99.000   4.410   2.708   1.702   0.000   0.006  251.97  232.08   95.17  136.91    0.00    0.15   0.182   0.185   0.185   0.196   0.193   0.191   0.190   0.190   0.190   0.271
 2015 220    73  18.50  30.50  13.60 -99.000   4.243   2.568   1.917 -99.000 -99.000 -99.000   3.880   2.225   1.655   0.000   0.005  256.22  235.96   97.39  138.57    0.00    0.15   0.187   0.185   0.187   0.189   0.184   0.181   0.181   0.181   0.181   0.223
 2015 221    74  23.60  31.40  12.60 -99.000   5.443   3.261   2.503 -99.000 -99.000 -99.000   5.418   3.261   2.157   0.000   0.005  261.66  241.38  100.66  140.72    0.00    0.16   0.250   0.244   0.246   0.245   0.237   0.235   0.233   0.233   0.233   0.326
 2015 222    75  23.90  31.10  15.70 -99.000   5.615   3.340   2.623 -99.000 -99.000 -99.000   5.592   3.340   2.252   0.000   0.005  267.27  246.97  104.00  142.98    0.00    0.16   0.249   0.248   0.250   0.255   0.251   0.250   0.250   0.250   0.250   0.334
 2015 223    76  13.20  28.60  15.70 -99.000   3.013   1.774   1.431 -99.000 -99.000 -99.000   2.998   1.774   1.224   0.000   0.005  270.29  249.97  105.77  144.20    0.00    0.17   0.139   0.137   0.139   0.142   0.135   0.134   0.133   0.133   0.133   0.177
 2015 224    77  19.40  28.80  15.70 -99.000   4.451   2.597   2.146 -99.000 -99.000 -99.000   4.431   2.597   1.834   0.000   0.004  274.74  254.40  108.37  146.03    0.00    0.17   0.212   0.207   0.209   0.213   0.202   0.199   0.197   0.197   0.197   0.260
 2015 225    78  19.40  28.20  15.80 -99.000   4.421   2.535   2.190 -99.000 -99.000 -99.000   4.403   2.535   1.868   0.000   0.004  279.16  258.80  110.90  147.90    0.00    0.18   0.207   0.206   0.208   0.215   0.208   0.206   0.206   0.206   0.206   0.253
 2015 226    79  16.70  28.00  15.40 -99.000   3.781   2.155   1.897 -99.000 -99.000 -99.000   3.764   2.155   1.610   0.000   0.004  282.94  262.57  113.06  149.51    0.00    0.18   0.173   0.176   0.175   0.184   0.181   0.180   0.180   0.180   0.180   0.215
 2015 227    80  19.50  30.20  17.70 -99.000   4.603   2.604   2.339 -99.000 -99.000 -99.000   4.084   2.103   1.981   0.000   0.004  287.54  266.65  115.16  151.49    0.00    0.18   0.225   0.222   0.224   0.228   0.219   0.217   0.216   0.216   0.215   0.210
 2015 228    81  16.20  30.80  15.20 -99.000   3.791   2.124   1.954 -99.000 -99.000 -99.000   3.776   2.124   1.652   0.000   0.004  291.33  270.43  117.28  153.14    0.00    0.19   0.191   0.187   0.189   0.189   0.181   0.179   0.179   0.179   0.178   0.212
 2015 229    82  18.20  29.10  16.20 -99.000   4.205   2.339   2.191 -99.000 -99.000 -99.000   4.189   2.339   1.850   0.000   0.003  295.54  274.62  119.62  154.99    0.00    0.19   0.206   0.205   0.206   0.211   0.205   0.204   0.204   0.204   0.204   0.234
 2015 230    83  19.50  29.90  15.40 -99.000   4.515   2.495   2.377 -99.000 -99.000 -99.000   4.498   2.495   2.003   0.000   0.003  300.05  279.11  122.12  157.00    0.00    0.19   0.216   0.220   0.219   0.228   0.225   0.224   0.224   0.224   0.224   0.249
 2015 231    84  18.80  31.00  20.80 -99.000   4.581   2.780   2.432 -99.000 -99.000 -99.000   2.790   1.918   0.872   0.000   0.003  304.63  281.90  124.04  157.87    0.00    0.20   0.709   0.085   0.031   0.017   0.010   0.007   0.005   0.004   0.003   0.192
 2015 232    85  17.70  30.60  16.00 -99.000   4.147   2.227   2.266 -99.000 -99.000 -99.000   3.409   1.504   1.905   0.000   0.003  308.78  285.31  125.54  159.77    0.00    0.20   0.214   0.214   0.214   0.214   0.211   0.210   0.210   0.209   0.209   0.150
 2015 233    86  19.10  31.80  17.80 -99.000   4.612   2.467   2.547 -99.000 -99.000 -99.000   4.597   2.467   2.130   0.000   0.002  313.39  289.91  128.01  161.90    0.00    0.20   0.250   0.243   0.242   0.237   0.233   0.232   0.232   0.231   0.231   0.247
 2015 234    87  19.10  32.60  16.60 -99.000   4.633   2.149   2.959 -99.000 -99.000 -99.000   4.620   2.149   2.471   0.000   0.003  318.03  294.53  130.16  164.38    0.00    0.21   0.277   0.274   0.273   0.276   0.274   0.274   0.274   0.274   0.274   0.215
 2015 235    88  19.70  33.30  16.70 -99.000   4.802   1.829   3.511 -99.000 -99.000 -99.000   4.687   1.829   2.858   0.000   0.003  322.83  299.22  131.98  167.23    0.00    0.21   0.310   0.314   0.311   0.321   0.320   0.320   0.320   0.320   0.320   0.183
 2015 236    89  18.30  33.60  17.20 -99.000   4.472   1.342   3.578 -99.000 -99.000 -99.000   2.216   1.342   0.873   0.000   0.010  327.30  301.43  133.33  168.11    0.00    0.22   0.711   0.085   0.031   0.017   0.010   0.007   0.005   0.004   0.003   0.134
 2015 237    90  17.00  34.00  16.10 -99.000   4.121   0.963   3.507 -99.000 -99.000 -99.000   3.702   0.963   2.739   0.000   0.013  331.42  305.14  134.29  170.85    0.00    0.23   0.310   0.310   0.310   0.307   0.301   0.300   0.300   0.300   0.300   0.096
 2015 238    91  14.30  33.10  17.20 -99.000   3.476   0.625   3.090 -99.000 -99.000 -99.000   3.004   0.625   2.379   0.000   0.015  334.90  308.14  134.91  173.22    0.00    0.25   0.280   0.273   0.272   0.264   0.259   0.258   0.258   0.258   0.256   0.063
 2015 239    92  15.80  29.70  16.70 -99.000   3.668   0.505   3.363 -99.000 -99.000 -99.000   3.069   0.505   2.564   0.000   0.015  338.56  311.21  135.42  175.79    0.00    0.26   0.302   0.292   0.290   0.285   0.281   0.279   0.279   0.279   0.276   0.051
 2015 240    93   7.10  25.80  15.50 -99.000   1.558   0.164   1.461 -99.000 -99.000 -99.000   1.099   0.164   0.935   0.000   0.176  340.12  312.31  135.58  176.72    0.00    0.44   0.335   0.149   0.104   0.083   0.069   0.058   0.050   0.045   0.040   0.016
 2015 241    94  18.20  32.70  19.10 -99.000   4.434   0.353   4.228 -99.000 -99.000 -99.000   3.424   0.353   3.071   0.000   0.124  344.56  315.73  135.94  179.79    0.00    0.56   0.350   0.342   0.346   0.357   0.357   0.345   0.329   0.324   0.321   0.035

*DSSAT Cropping System Model Ver. 4.7.5.007 -  MAR 01, 2026 21:19:28
!                                                                                                                                                                                        Soil evaporation (mm/d) by soil depth (cm):
!                                                                                                                                                                                       0-10   10-20   20-30   30-40   40-50   50-60   60-70   70-80   80-90
@YEAR DOY   DAS   SRAA  TMAXA  TMINA    REFA    EOAA    EOPA    EOSA    KCAA    KCBA    KEAA    ETAA    EPAA    ESAA    EFAA    EMAA    EOAC    ETAC    EPAC    ESAC    EFAC    EMAC    ES1D    ES2D    ES3D    ES4D    ES5D    ES6D    ES7D    ES8D    ES9D   TRWUD
 2015 161     1  10.80  27.40  14.70 -99.000   2.770   0.000   2.770 -99.000 -99.000 -99.000   2.770   0.000   2.770   0.000   0.000    2.77    2.77    0.00    2.77    0.00    0.00   0.315   0.311   0.311   0.319   0.307   0.303   0.302   0.301   0.301   0.000
 2015 162     2  15.20  28.30  15.60 -99.000   4.007   0.000   4.007 -99.000 -99.000 -99.000   3.144   0.000   3.144   0.000   0.000    6.78    5.91    0.00    5.91    0.00    0.00   0.366   0.356   0.359   0.365   0.345   0.339   0.338   0.337   0.337   0.000
 2015 163     3  13.20  27.70  16.80 -99.000   3.475   0.000   3.475 -99.000 -99.000 -99.000   3.086   0.000   3.086   0.000   0.000   10.25    9.00    0.00    9.00    0.00    0.00   0.349   0.345   0.346   0.355   0.342   0.337   0.337   0.337   0.337   0.000
 2015 164     4  15.00  28.70  14.70 -99.000   3.921   0.000   3.921 -99.000 -99.000 -99.000   3.047   0.000   3.047   0.000   0.000   14.17   12.05    0.00   12.05    0.00    0.00   0.338   0.338   0.336   0.347   0.338   0.337   0.337   0.337   0.337   0.000
 2015 165     5  15.20  28.80  14.20 -99.000   3.955   0.000   3.955 -99.000 -99.000 -99.000   3.132   0.000   3.132   0.000   0.000   18.13   15.18    0.00   15.18    0.00    0.00   0.361   0.352   0.355   0.365   0.351   0.340   0.337   0.335   0.335   0.000
 2015 166     6  14.90  29.00  15.60 -99.000   3.946   0.077   3.902 -99.000 -99.000 -99.000   3.229   0.077   3.152   0.000   0.000   22.07   18.41    0.08   18.33    0.00    0.00   0.365   0.355   0.359   0.370   0.355   0.341   0.337   0.335   0.335   0.008
 2015 167     7  13.50  28.80  14.90 -99.000   3.532   0.087   3.483 -99.000 -99.000 -99.000   3.181   0.087   3.094   0.000   0.000   25.61   21.59    0.16   21.42    0.00    0.00   0.349   0.344   0.345   0.358   0.348   0.338   0.337   0.337   0.337   0.009
 2015 168     8  11.60  28.60  16.10 -99.000   3.045   0.053   2.992 -99.000 -99.000 -99.000   3.045   0.053   2.992   0.000   0.000   28.65   24.63    0.22   24.42    0.00    0.00   0.331   0.330   0.329   0.343   0.336   0.331   0.331   0.331   0.331   0.005
 2015 169     9  13.40  28.70  15.70 -99.000   3.501   0.134   3.424 -99.000 -99.000 -99.000   3.155   0.134   3.021   0.000   0.000   32.15   27.79    0.35   27.44    0.00    0.00   0.330   0.332   0.330   0.344   0.339   0.337   0.337   0.336   0.335   0.013
 2015 170    10  13.60  27.20  15.40 -99.000   3.475   0.161   3.383 -99.000 -99.000 -99.000   3.262   0.161   3.101   0.000   0.000   35.63   31.05    0.51   30.54    0.00    0.00   0.357   0.349   0.352   0.362   0.343   0.338   0.335   0.334   0.332   0.016
 2015 171    11  12.90  25.90  12.50 -99.000   3.196   0.099   3.095 -99.000 -99.000 -99.000   3.195   0.099   3.095   0.000   0.000   38.82   34.25    0.61   33.63    0.00    0.00   0.360   0.351   0.354   0.364   0.340   0.334   0.332   0.331   0.330   0.010
 2015 172    12  14.00  24.30  14.80 -99.000   3.450   0.210   3.328 -99.000 -99.000 -99.000   3.294   0.210   3.084   0.000   0.000   42.27   37.54    0.82   36.72    0.00    0.00   0.349   0.344   0.345   0.356   0.340   0.337   0.337   0.337   0.337   0.021
 2015 173    13  13.30  26.20  13.00 -99.000   3.292   0.232   3.157 -99.000 -99.000 -99.000   3.277   0.232   3.045   0.000   0.000   45.56   40.82    1.05   39.76    0.00    0.00   0.337   0.337   0.336   0.349   0.338   0.337   0.337   0.337   0.337   0.023
[...]
 2017 123    16  13.40  25.00  17.70 -99.000   3.385   0.410   3.140 -99.000 -99.000 -99.000   3.341   0.410   2.931   0.000   0.000   66.41   50.08    2.59   47.49    0.00    0.00   0.388   0.375   0.339   0.313   0.309   0.305   0.303   0.301   0.298   0.041
 2017 124    17  18.70  26.90  17.60 -99.000   4.790   0.690   4.373 -99.000 -99.000 -99.000   3.567   0.690   2.878   0.000   0.000   71.20   53.64    3.28   50.37    0.00    0.00   0.370   0.364   0.331   0.307   0.304   0.302   0.300   0.300   0.300   0.069
 2017 125    18  18.60  27.60  17.70 -99.000   4.780   0.776   4.306 -99.000 -99.000 -99.000   3.676   0.776   2.901   0.000   0.000   75.98   57.32    4.05   53.27    0.00    0.00   0.389   0.375   0.335   0.306   0.302   0.299   0.298   0.298   0.298   0.078
 2017 126    19  15.10  26.80  16.30 -99.000   3.812   0.698   3.380 -99.000 -99.000 -99.000   3.592   0.698   2.895   0.000   0.000   79.79   60.91    4.75   56.16    0.00    0.00   0.387   0.375   0.334   0.304   0.301   0.298   0.298   0.298   0.298   0.070
 2017 127    20  15.50  27.40  18.30 -99.000   3.967   0.847   3.432 -99.000 -99.000 -99.000   3.788   0.847   2.940   0.000   0.000   83.76   64.70    5.60   59.10    0.00    0.00   0.397   0.381   0.358   0.310   0.301   0.299   0.298   0.298   0.298   0.085
 2017 128    21  17.80  28.10  18.30 -99.000   4.578   1.139   3.844 -99.000 -99.000 -99.000   4.070   1.139   2.931   0.000   0.000   88.33   68.77    6.74   62.03    0.00    0.00   0.387   0.375   0.363   0.312   0.301   0.299   0.298   0.298   0.298   0.114
 2017 129    22  18.60  28.10  17.10 -99.000   4.707   1.278   3.871 -99.000 -99.000 -99.000   4.158   1.278   2.880   0.000   0.000   93.04   72.93    8.02   64.91    0.00    0.00   0.367   0.361   0.346   0.306   0.300   0.300   0.300   0.300   0.300   0.128
 2017 130    23  18.30  26.90  16.30 -99.000   4.509   1.346   3.612 -99.000 -99.000 -99.000   4.183   1.346   2.837   0.000   0.000   97.55   77.11    9.36   67.75    0.00    0.00   0.353   0.352   0.335   0.301   0.300   0.300   0.300   0.298   0.298   0.135
 2017 131    24  18.30  27.80  16.70 -99.000   4.539   1.507   3.511 -99.000 -99.000 -99.000   4.303   1.507   2.796   0.000   0.000  102.09   81.41   10.87   70.55    0.00    0.00   0.344   0.343   0.326   0.298   0.298   0.298   0.298   0.295   0.295   0.151
 2017 132    25  17.80  27.20  15.80 -99.000   4.324   1.494   3.208 -99.000 -99.000 -99.000   4.315   1.494   2.821   0.000   0.000  106.41   85.73   12.36   73.37    0.00    0.00   0.374   0.358   0.325   0.295   0.294   0.295   0.295   0.292   0.292   0.149
 2017 133    26  17.30  27.80  18.30 -99.000   4.314   1.463   3.052 -99.000 -99.000 -99.000   4.305   1.463   2.842   0.000   0.000  110.73   90.03   13.83   76.21    0.00    0.00   0.392   0.376   0.328   0.294   0.291   0.292   0.292   0.289   0.288   0.146
 2017 134    27  17.40  28.20  19.90 -99.000   4.368   1.543   2.893 -99.000 -99.000 -99.000   4.358   1.543   2.815   0.000   0.000  115.10   94.39   15.37   79.02    0.00    0.00   0.385   0.373   0.329   0.294   0.287   0.288   0.288   0.286   0.285   0.154
 2017 135    28  12.00  27.40  18.00 -99.000   2.917   1.135   1.777 -99.000 -99.000 -99.000   2.909   1.135   1.774   0.000   0.000  118.01   97.30   16.50   80.80    0.00    0.00   0.242   0.235   0.209   0.186   0.180   0.181   0.181   0.180   0.179   0.114
 2017 136    29  14.90  27.70  17.30 -99.000   3.588   1.510   2.072 -99.000 -99.000 -99.000   3.578   1.510   2.068   0.000   0.000  121.60  100.88   18.01   82.86    0.00    0.00   0.290   0.278   0.247   0.218   0.207   0.208   0.208   0.206   0.206   0.151
 2017 137    30  11.40  27.60  18.90 -99.000   2.761   1.245   1.513 -99.000 -99.000 -99.000   2.753   1.245   1.508   0.000   0.000  124.36  103.63   19.26   84.37    0.00    0.00   0.211   0.200   0.190   0.177   0.152   0.146   0.145   0.143   0.143   0.124
 2017 138    31  16.90  27.90  18.00 -99.000   4.056   1.929   2.127 -99.000 -99.000 -99.000   4.043   1.929   2.114   0.000   0.000  128.42  107.67   21.19   86.49    0.00    0.00   0.278   0.274   0.271   0.267   0.227   0.206   0.198   0.196   0.196   0.193
 2017 139    32  12.40  27.00  18.90 -99.000   2.943   1.485   1.460 -99.000 -99.000 -99.000   2.932   1.485   1.447   0.000   0.000  131.36  110.61   22.67   87.93    0.00    0.00   0.187   0.182   0.182   0.179   0.168   0.154   0.137   0.129   0.129   0.149
 2017 140    33   1.90  20.40  17.90 -99.000   0.412   0.217   0.195 -99.000 -99.000 -99.000   0.410   0.217   0.193   0.000   0.000  131.77  111.02   22.89   88.13    0.00    0.00   0.024   0.024   0.023   0.023   0.023   0.022   0.019   0.017   0.017   0.022
 2017 141    34  10.60  25.30  17.70 -99.000   2.428   1.299   1.137 -99.000 -99.000 -99.000   2.419   1.299   1.120   0.000   0.001  134.20  113.44   24.19   89.25    0.00    0.00   0.137   0.137   0.133   0.129   0.131   0.127   0.115   0.106   0.105   0.130
 2017 142    35  14.90  27.90  18.90 -99.000   3.529   1.975   1.567 -99.000 -99.000 -99.000   3.516   1.975   1.541   0.000   0.001  137.73  116.95   26.16   90.79    0.00    0.00   0.192   0.187   0.186   0.175   0.175   0.170   0.157   0.149   0.148   0.197
 2017 143    36  14.80  28.10  20.20 -99.000   3.540   2.047   1.511 -99.000 -99.000 -99.000   3.526   2.047   1.479   0.000   0.001  141.27  120.48   28.21   92.27    0.00    0.00   0.186   0.180   0.179   0.165   0.164   0.161   0.153   0.147   0.145   0.205
 2017 144    37  17.00  28.20  19.90 -99.000   4.035   2.451   1.611 -99.000 -99.000 -99.000   4.018   2.451   1.568   0.000   0.001  145.31  124.50   30.66   93.83    0.00    0.00   0.193   0.190   0.186   0.172   0.172   0.170   0.164   0.160   0.159   0.245
 2017 145    38  16.90  26.90  19.20 -99.000   3.914   2.476   1.463 -99.000 -99.000 -99.000   3.896   2.476   1.420   0.000   0.002  149.22  128.39   33.14   95.25    0.00    0.01   0.172   0.172   0.165   0.155   0.155   0.155   0.150   0.148   0.148   0.248
 2017 146    39  17.00  26.50  18.20 -99.000   3.877   2.524   1.377 -99.000 -99.000 -99.000   3.858   2.524   1.334   0.000   0.002  153.10  132.25   35.66   96.59    0.00    0.01   0.159   0.160   0.154   0.145   0.146   0.145   0.143   0.141   0.141   0.252
 2017 147    40  15.90  25.90  16.40 -99.000   3.540   2.373   1.191 -99.000 -99.000 -99.000   3.521   2.373   1.148   0.000   0.002  156.64  135.77   38.04   97.74    0.00    0.01   0.148   0.141   0.130   0.122   0.123   0.123   0.121   0.120   0.120   0.237
 2017 148    41  16.80  25.70  15.70 -99.000   3.710   2.541   1.196 -99.000 -99.000 -99.000   3.690   2.541   1.149   0.000   0.002  160.34  139.46   40.58   98.88    0.00    0.01   0.153   0.144   0.128   0.120   0.121   0.122   0.121   0.120   0.120   0.254
 2017 149    42  17.00  26.40  17.60 -99.000   3.829   2.692   1.168 -99.000 -99.000 -99.000   3.809   2.692   1.117   0.000   0.003  164.17  143.27   43.27  100.00    0.00    0.01   0.143   0.138   0.126   0.117   0.119   0.119   0.118   0.118   0.118   0.269
 2017 150    43  16.90  26.60  17.30 -99.000   3.799   2.722   1.106 -99.000 -99.000 -99.000   3.778   2.722   1.055   0.000   0.003  167.97  147.05   45.99  101.06    0.00    0.02   0.134   0.129   0.118   0.111   0.113   0.113   0.113   0.112   0.112   0.272
 2017 151    44  16.70  27.20  17.80 -99.000   3.789   2.762   1.058 -99.000 -99.000 -99.000   3.764   2.762   1.003   0.000   0.006  171.76  150.81   48.75  102.06    0.00    0.02   0.127   0.123   0.111   0.105   0.107   0.108   0.108   0.107   0.107   0.276
 2017 152    45  11.30  24.50  16.10 -99.000   2.448   1.807   0.661 -99.000 -99.000 -99.000   2.428   1.807   0.621   0.000   0.007  174.21  153.24   50.56  102.68    0.00    0.03   0.083   0.079   0.068   0.063   0.065   0.066   0.066   0.065   0.065   0.181
 2017 153    46   9.10  23.80  15.90 -99.000   1.952   1.449   0.521 -99.000 -99.000 -99.000   1.934   1.449   0.485   0.000   0.008  176.16  155.17   52.01  103.17    0.00    0.04   0.066   0.065   0.054   0.048   0.050   0.051   0.050   0.050   0.050   0.145
 2017 154    47  16.40  27.50  16.20 -99.000   3.680   2.754   0.964 -99.000 -99.000 -99.000   3.653   2.754   0.899   0.000   0.010  179.84  158.83   54.76  104.06    0.00    0.05   0.118   0.117   0.102   0.093   0.093   0.095   0.094   0.094   0.094   0.275
 2017 155    48  16.30  28.00  19.60 -99.000   3.771   2.840   0.972 -99.000 -99.000 -99.000   3.745   2.840   0.905   0.000   0.010  183.61  162.57   57.60  104.97    0.00    0.06   0.114   0.115   0.103   0.096   0.095   0.096   0.095   0.095   0.095   0.284
 2017 156    49  16.80  28.60  18.30 -99.000   3.873   2.931   0.983 -99.000 -99.000 -99.000   3.846   2.931   0.914   0.000   0.009  187.49  166.42   60.53  105.88    0.00    0.07   0.759   0.089   0.029   0.014   0.008   0.006   0.004   0.003   0.002   0.293
 2017 157    50  16.70  27.90  17.00 -99.000   3.781   2.862   0.961 -99.000 -99.000 -99.000   3.754   2.862   0.892   0.000   0.009  191.27  170.17   63.39  106.78    0.00    0.08   0.117   0.113   0.100   0.093   0.093   0.095   0.094   0.094   0.094   0.286
 2017 158    51  16.60  27.10  16.80 -99.000   3.723   2.803   0.964 -99.000 -99.000 -99.000   3.697   2.803   0.893   0.000   0.008  194.99  173.87   66.20  107.67    0.00    0.08   0.122   0.114   0.101   0.092   0.091   0.094   0.093   0.093   0.093   0.280
 2017 159    52  16.60  28.40  18.10 -99.000   3.816   2.859   1.007 -99.000 -99.000 -99.000   3.790   2.859   0.931   0.000   0.008  198.81  177.66   69.06  108.60    0.00    0.09   0.122   0.117   0.107   0.098   0.096   0.099   0.098   0.098   0.098   0.286
 2017 160    53  14.70  26.60  15.00 -99.000   3.232   2.406   0.870 -99.000 -99.000 -99.000   3.208   2.406   0.802   0.000   0.008  202.04  180.86   71.46  109.40    0.00    0.10   0.102   0.099   0.092   0.085   0.083   0.086   0.085   0.085   0.085   0.241
 2017 161    54  15.80  23.20  11.30 -99.000   3.234   2.393   0.887 -99.000 -99.000 -99.000   3.208   2.393   0.815   0.000   0.008  205.27  184.07   73.86  110.22    0.00    0.11   0.679   0.078   0.026   0.012   0.007   0.005   0.004   0.003   0.002   0.239
 2017 162    55  15.50  26.70  11.60 -99.000   3.321   2.448   0.924 -99.000 -99.000 -99.000   3.296   2.448   0.848   0.000   0.007  208.59  187.37   76.30  111.07    0.00    0.12   0.113   0.106   0.094   0.088   0.087   0.090   0.090   0.089   0.089   0.245
 2017 163    56  14.90  27.70  17.80 -99.000   3.396   2.492   0.962 -99.000 -99.000 -99.000   3.373   2.492   0.881   0.000   0.007  211.99  190.74   78.79  111.95    0.00    0.12   0.123   0.112   0.100   0.089   0.089   0.093   0.092   0.092   0.092   0.249
 2017 164    57  15.60  27.60  17.70 -99.000   3.548   2.583   1.030 -99.000 -99.000 -99.000   3.525   2.583   0.943   0.000   0.007  215.54  194.27   81.38  112.89    0.00    0.13   0.125   0.119   0.109   0.095   0.096   0.100   0.099   0.099   0.099   0.258
 2017 165    58  16.70  27.30  17.60 -99.000   3.782   2.734   1.125 -99.000 -99.000 -99.000   3.758   2.734   1.023   0.000   0.007  219.32  198.02   84.11  113.91    0.00    0.14   0.132   0.129   0.118   0.104   0.105   0.110   0.109   0.108   0.108   0.273
 2017 166    59  15.20  25.90  16.30 -99.000   3.352   2.406   1.022 -99.000 -99.000 -99.000   3.329   2.406   0.922   0.000   0.007  222.67  201.35   86.52  114.84    0.00    0.14   0.769   0.088   0.029   0.013   0.008   0.006   0.004   0.003   0.002   0.241
 2017 167    60  16.40  25.40  15.90 -99.000   3.583   2.681   1.118 -99.000 -99.000 -99.000   3.559   2.681   0.877   0.000   0.007  226.25  204.91   89.20  115.71    0.00    0.15   0.727   0.086   0.028   0.013   0.008   0.006   0.004   0.003   0.002   0.268
 2017 168    61  15.20  25.60  15.90 -99.000   3.328   2.473   1.063 -99.000 -99.000 -99.000   3.305   2.473   0.831   0.000   0.007  229.58  208.22   91.67  116.54    0.00    0.16   0.685   0.082   0.028   0.013   0.008   0.006   0.004   0.003   0.002   0.247
 2017 169    62  16.80  26.20  15.70 -99.000   3.698   2.599   1.208 -99.000 -99.000 -99.000   3.108   2.033   1.074   0.000   0.007  233.28  211.32   93.71  117.62    0.00    0.17   0.142   0.125   0.118   0.110   0.112   0.118   0.117   0.117   0.117   0.203
 2017 170    63  11.30  26.30  17.30 -99.000   2.529   1.762   0.847 -99.000 -99.000 -99.000   2.510   1.762   0.748   0.000   0.007  235.81  213.83   95.47  118.37    0.00    0.17   0.108   0.088   0.079   0.075   0.077   0.081   0.080   0.080   0.080   0.176
 2017 171    64  16.20  25.90  13.20 -99.000   3.493   2.410   1.198 -99.000 -99.000 -99.000   3.469   2.410   1.059   0.000   0.007  239.30  217.30   97.88  119.42    0.00    0.18   0.146   0.128   0.112   0.106   0.109   0.115   0.114   0.114   0.114   0.241
 2017 172    65  16.40  25.40  14.40 -99.000   3.548   2.430   1.241 -99.000 -99.000 -99.000   3.525   2.430   1.095   0.000   0.006  242.85  220.83  100.31  120.52    0.00    0.19   0.146   0.131   0.116   0.110   0.114   0.120   0.119   0.119   0.119   0.243
 2017 173    66  16.70  23.70  14.10 -99.000   3.530   2.399   1.260 -99.000 -99.000 -99.000   3.507   2.399   1.108   0.000   0.006  246.38  224.33  102.71  121.63    0.00    0.19   0.157   0.139   0.115   0.109   0.113   0.119   0.119   0.118   0.118   0.240
 2017 174    67  16.00  23.70  15.10 -99.000   3.419   2.274   1.281 -99.000 -99.000 -99.000   3.397   2.274   1.123   0.000   0.006  249.80  227.73  104.98  122.75    0.00    0.20   0.161   0.148   0.118   0.109   0.113   0.119   0.119   0.118   0.118   0.227
 2017 175    68  16.40  24.10  15.00 -99.000   3.515   2.326   1.341 -99.000 -99.000 -99.000   3.493   2.326   1.168   0.000   0.006  253.31  231.23  107.31  123.92    0.00    0.20   0.160   0.152   0.127   0.114   0.118   0.125   0.124   0.124   0.124   0.233
 2017 176    69  16.70  24.10  12.30 -99.000   3.501   2.297   1.358 -99.000 -99.000 -99.000   3.478   2.297   1.180   0.000   0.006  256.81  234.70  109.60  125.10    0.00    0.21   0.158   0.152   0.128   0.116   0.120   0.128   0.127   0.126   0.126   0.230
 2017 177    70  15.00  23.70  14.00 -99.000   3.172   2.246   1.249 -99.000 -99.000 -99.000   3.152   2.246   0.906   0.000   0.005  259.99  237.86  111.85  126.00    0.00    0.21   0.760   0.086   0.026   0.012   0.008   0.005   0.004   0.003   0.002   0.225
 2017 178    71  16.00  24.10  14.30 -99.000   3.408   2.206   1.362 -99.000 -99.000 -99.000   3.387   2.206   1.181   0.000   0.005  263.39  241.24  114.06  127.19    0.00    0.22   0.166   0.151   0.126   0.115   0.119   0.127   0.126   0.126   0.126   0.221
 2017 179    72  15.20  24.80  14.30 -99.000   3.275   2.106   1.329 -99.000 -99.000 -99.000   3.256   2.106   1.150   0.000   0.004  266.67  244.50  116.16  128.34    0.00    0.22   0.170   0.151   0.120   0.110   0.114   0.122   0.121   0.121   0.121   0.211
 2017 180    73  16.50  24.10  15.10 -99.000   3.545   2.265   1.459 -99.000 -99.000 -99.000   3.525   2.265   1.260   0.000   0.004  270.21  248.02  118.43  129.60    0.00    0.23   0.178   0.168   0.133   0.121   0.126   0.135   0.134   0.133   0.133   0.226
 2017 181    74  10.20  24.60  14.40 -99.000   2.191   1.391   0.914 -99.000 -99.000 -99.000   2.178   1.391   0.787   0.000   0.004  272.40  250.20  119.82  130.38    0.00    0.23   0.107   0.104   0.083   0.076   0.079   0.085   0.084   0.084   0.084   0.139
 2017 182    75  14.90  25.30  15.60 -99.000   3.258   2.318   1.377 -99.000 -99.000 -99.000   3.241   2.318   0.923   0.000   0.003  275.66  253.44  122.14  131.31    0.00    0.23   0.776   0.088   0.026   0.012   0.007   0.005   0.004   0.003   0.002   0.232
 2017 183    76  16.60  24.50  16.60 -99.000   3.623   2.270   1.551 -99.000 -99.000 -99.000   3.604   2.270   1.334   0.000   0.003  279.29  257.05  124.41  132.64    0.00    0.24   0.191   0.176   0.140   0.128   0.133   0.142   0.141   0.141   0.141   0.227
 2017 184    77  16.10  22.30  13.60 -99.000   3.348   2.084   1.451 -99.000 -99.000 -99.000   3.330   2.084   1.246   0.000   0.003  282.63  260.38  126.49  133.89    0.00    0.24   0.186   0.167   0.132   0.117   0.123   0.131   0.130   0.130   0.130   0.208
 2017 185    78  15.20  20.40  11.90 -99.000   3.038   1.883   1.327 -99.000 -99.000 -99.000   3.020   1.883   1.138   0.000   0.003  285.67  263.40  128.37  135.02    0.00    0.24   0.162   0.153   0.124   0.108   0.113   0.121   0.120   0.119   0.119   0.188
 2017 186    79  16.60  21.30  12.00 -99.000   3.357   2.075   1.476 -99.000 -99.000 -99.000   3.338   2.075   1.263   0.000   0.002  289.03  266.74  130.45  136.29    0.00    0.25   0.175   0.169   0.138   0.120   0.126   0.135   0.134   0.133   0.133   0.208
 2017 187    80  16.20  22.60  12.10 -99.000   3.332   2.371   1.474 -99.000 -99.000 -99.000   3.284   2.371   0.913   0.000   0.002  292.36  270.02  132.82  137.20    0.00    0.25   0.767   0.087   0.026   0.011   0.007   0.005   0.004   0.003   0.002   0.237
 2017 188    81  14.70  23.20  13.80 -99.000   3.087   2.185   1.378 -99.000 -99.000 -99.000   3.044   2.185   0.859   0.000   0.002  295.45  273.06  135.01  138.06    0.00    0.25   0.716   0.084   0.026   0.011   0.007   0.005   0.004   0.003   0.002   0.218
 2017 189    82  15.80  23.30  13.80 -99.000   3.321   2.334   1.497 -99.000 -99.000 -99.000   2.687   1.871   0.816   0.000   0.002  298.77  275.75  136.88  138.87    0.00    0.25   0.678   0.080   0.026   0.011   0.007   0.005   0.004   0.003   0.002   0.187
 2017 190    83  16.90  23.30  13.90 -99.000   3.554   2.478   1.619 -99.000 -99.000 -99.000   2.170   1.246   0.924   0.000   0.002  302.32  277.92  138.12  139.80    0.00    0.25   0.787   0.080   0.025   0.011   0.007   0.005   0.004   0.003   0.002   0.125
 2017 191    84  16.40  24.20  14.10 -99.000   3.534   1.884   1.922 -99.000 -99.000 -99.000   3.520   1.884   1.636   0.000   0.002  305.86  281.44  140.01  141.43    0.00    0.26   0.247   0.202   0.173   0.155   0.163   0.175   0.174   0.173   0.173   0.188
 2017 192    85  16.40  25.30  15.20 -99.000   3.605   1.732   2.259 -99.000 -99.000 -99.000   3.593   1.732   1.861   0.000   0.002  309.46  285.03  141.74  143.30    0.00    0.26   0.269   0.234   0.198   0.178   0.187   0.200   0.199   0.198   0.198   0.173
 2017 193    86  17.30  25.60  13.60 -99.000   3.755   1.467   2.711 -99.000 -99.000 -99.000   2.390   1.467   0.923   0.000   0.011  313.22  287.42  143.20  144.22    0.00    0.27   0.786   0.080   0.025   0.011   0.007   0.005   0.004   0.003   0.002   0.147
 2017 194    87  17.10  24.90  15.40 -99.000   3.719   1.149   2.948 -99.000 -99.000 -99.000   2.027   1.149   0.878   0.000   0.015  316.94  289.45  144.35  145.10    0.00    0.28   0.743   0.079   0.025   0.011   0.007   0.005   0.004   0.003   0.002   0.115
 2017 195    88  17.10  24.60  14.10 -99.000   3.650   0.879   3.086 -99.000 -99.000 -99.000   3.260   0.879   2.381   0.000   0.017  320.59  292.71  145.23  147.48    0.00    0.30   0.351   0.300   0.250   0.226   0.238   0.256   0.254   0.253   0.253   0.088
 2017 196    89  15.20  24.60  13.50 -99.000   3.247   0.603   2.873 -99.000 -99.000 -99.000   2.793   0.603   2.189   0.000   0.017  323.83  295.50  145.84  149.67    0.00    0.32   0.343   0.291   0.225   0.203   0.214   0.230   0.228   0.228   0.228   0.060
 2017 197    90  17.40  24.70  14.20 -99.000   3.725   0.530   3.405 -99.000 -99.000 -99.000   2.970   0.530   2.440   0.000   0.016  327.56  298.47  146.37  152.11    0.00    0.33   0.368   0.336   0.250   0.227   0.239   0.257   0.255   0.254   0.254   0.053
 2017 198    91  17.10  24.70  15.40 -99.000   3.682   0.400   3.445 -99.000 -99.000 -99.000   2.810   0.400   2.410   0.000   0.014  331.24  301.28  146.77  154.52    0.00    0.35   0.355   0.338   0.248   0.224   0.236   0.254   0.252   0.251   0.251   0.040
