*Surface Mulch daily output file

*DSSAT Cropping System Model Ver. 4.7.5.007 -  MAR 01, 2026 21:19:28
@YEAR DOY   DAS    MCFD   MDEPD    MWAD    MWTD
 2015 102     0   0.000    0.00       0    0.00
 2015 103     1   0.000    0.00       0    0.00
 2015 104     2   0.000    0.00       0    0.00
 2015 105     3   0.000    0.00       0    0.00
 2015 106     4   0.000    0.00       0    0.00
 2015 107     5   0.000    0.00       0    0.00
 2015 108     6   0.000    0.00       0    0.00
 2015 109     7   0.000    0.00       0    0.00
 2015 110     8   0.000    0.00       0    0.00
 2015 111     9   0.000    0.00       0    0.00
 2015 112    10   0.000    0.00       0    0.00
 2015 113    11   0.000    0.00       0    0.00
 2015 114    12   0.000    0.00       1    0.00
 2015 115    13   0.000    0.00       1    0.00
 2015 116    14   0.001    0.00       2    0.00
 2015 117    15   0.001    0.00       2    0.00
 2015 118    16   0.001    0.00       3    0.00
 2015 119    17   0.001    0.00       4    0.00
 2015 120    18   0.001    0.00       5    0.00
 2015 121    19   0.001    0.00       5    0.00
 2015 122    20   0.002    0.00       5    0.00
 2015 123    21   0.002    0.00       5    0.00
 2015 124    22   0.002    0.00       5    0.00
 2015 125    23   0.002    0.00       7    0.00
 2015 126    24   0.003    0.00       8    0.00
 2015 127    25   0.003    0.00      10    0.00
 2015 128    26   0.004    0.00      14    0.00
 2015 129    27   0.005    0.00      16    0.00
 2015 130    28   0.005    0.00      16    0.00
 2015 131    29   0.005    0.00      16    0.01
 2015 132    30   0.009    0.00      27    0.01
 2015 133    31   0.011    0.00      36    0.01
 2015 134    32   0.015    0.00      47    0.01
 2015 135    33   0.023    0.00      73    0.01
 2015 136    34   0.024    0.00      77    0.02
 2015 137    35   0.029    0.00      90    0.02
 2015 138    36   0.034    0.00     107    0.02
 2015 139    37   0.042    0.00     135    0.04
 2015 140    38   0.055    0.00     176    0.05
 2015 141    39   0.057    0.00     182    0.06
 2015 142    40   0.061    0.00     196    0.05
 2015 143    41   0.068    0.00     220    0.05
 2015 144    42   0.072    0.00     232    0.06
 2015 145    43   0.076    0.00     247    0.05
 2015 146    44   0.082    0.01     268    0.05
 2015 147    45   0.091    0.01     299    0.05
 2015 148    46   0.093    0.01     304    0.06
 2015 149    47   0.098    0.01     321    0.05
 2015 150    48   0.103    0.01     339    0.05
 2015 151    49   0.107    0.01     355    0.05
 2015 152    50   0.112    0.01     371    0.05
 2015 153    51   0.117    0.01     389    0.05
 2015 154    52   0.120    0.01     401    0.05
 2015 155    53   0.124    0.01     412    0.04
 2015 156    54   0.130    0.01     434    0.04
 2015 157    55   0.143    0.02     482    0.04
 2015 158    56   0.148    0.02     500    0.04
 2015 159    57   0.152    0.02     516    0.04
 2015 160    58   0.157    0.02     534    0.04
 2015 161    59   0.164    0.02     561    0.04
 2015 162    60   0.168    0.02     576    0.04
 2015 163    61   0.176    0.03     605    0.04
 2015 164    62   0.182    0.03     629    0.04
 2015 165    63   0.189    0.03     656    0.03
 2015 166    64   0.198    0.03     688    0.03
 2015 167    65   0.206    0.04     720    0.03
 2015 168    66   0.210    0.04     738    0.03
 2015 169    67   0.214    0.04     754    0.03
 2015 170    68   0.219    0.04     773    0.03
 2015 171    69   0.223    0.04     790    0.03
 2015 172    70   0.226    0.05     802    0.03
 2015 173    71   0.229    0.05     814    0.02
 2015 174    72   0.232    0.05     825    0.02
 2015 175    73   0.235    0.05     836    0.02
 2015 176    74   0.237    0.05     846    0.02
 2015 177    75   0.240    0.05     858    0.02
 2015 178    76   0.242    0.05     868    0.01
 2015 179    77   0.244    0.05     875    0.01
 2015 180    78   0.246    0.05     883    0.01
 2015 181    79   0.250    0.06     898    0.01
 2015 182    80   0.257    0.06     927    0.01
 2015 183    81   0.259    0.06     935    0.01
 2015 184    82   0.260    0.06     941    0.01
 2015 185    83   0.261    0.06     945    0.01
 2015 186    84   0.297    0.08    1100    0.01
 2015 187    85   0.322    0.10    1216    0.04
 2015 188    86   0.341    0.11    1303    0.05
 2015 189    87   0.355    0.12    1368    0.49
 2015 190    88   0.365    0.13    1419    0.36
 2015 191    89   0.373    0.14    1457    0.25
 2015 192    90   0.379    0.15    1487    0.18
 2015 193    91   0.383    0.15    1509    0.13

*DSSAT Cropping System Model Ver. 4.7.5.007 -  MAR 01, 2026 21:19:28
@YEAR DOY   DAS    MCFD   MDEPD    MWAD    MWTD
 2015 125     0   0.000    0.00       0    0.00
 2015 126     1   0.000    0.00       0    0.00
 2015 127     2   0.000    0.00       0    0.00
 2015 128     3   0.000    0.00       0    0.00
 2015 129     4   0.000    0.00       0    0.00
 2015 130     5   0.000    0.00       0    0.00
 2015 131     6   0.000    0.00       0    0.00
 2015 132     7   0.000    0.00       0    0.00
 2015 133     8   0.000    0.00       0    0.00
 2015 134     9   0.000    0.00       0    0.00
 2015 135    10   0.000    0.00       0    0.00
 2015 136    11   0.000    0.00       0    0.00
 2015 137    12   0.000    0.00       0    0.00
 2015 138    13   0.000    0.00       0    0.00
 2015 139    14   0.000    0.00       0    0.00
 2015 140    15   0.000    0.00       1    0.00
 2015 141    16   0.000    0.00       1    0.00
 2015 142    17   0.000    0.00       1    0.00
 2015 143    18   0.001    0.00       2    0.00
 2015 144    19   0.001    0.00       3    0.00
 2015 145    20   0.001    0.00       3    0.00
 2015 146    21   0.001    0.00       3    0.00
 2015 147    22   0.001    0.00       3    0.00
 2015 148    23   0.001    0.00       4    0.00
 2015 149    24   0.001    0.00       4    0.00
 2015 150    25   0.003    0.00       9    0.00
 2015 151    26   0.006    0.00      19    0.00
 2015 152    27   0.007    0.00      22    0.00
 2015 153    28   0.008    0.00      24    0.00
 2015 154    29   0.008    0.00      24    0.00
 2015 155    30   0.008    0.00      24    0.00
 2015 156    31   0.008    0.00      24    0.00
 2015 157    32   0.009    0.00      27    0.00
 2015 158    33   0.009    0.00      27    0.00
 2015 159    34   0.011    0.00      36    0.00
 2015 160    35   0.018    0.00      56    0.01
 2015 161    36   0.026    0.00      81    0.01
 2015 162    37   0.026    0.00      81    0.01
 2015 163    38   0.031    0.00      98    0.01
 2015 164    39   0.040    0.00     129    0.02
 2015 165    40   0.049    0.00     157    0.02
 2015 166    41   0.054    0.00     173    0.03
 2015 167    42   0.059    0.00     190    0.03
 2015 168    43   0.066    0.00     214    0.03
 2015 169    44   0.069    0.00     225    0.03
 2015 170    45   0.073    0.00     238    0.03
 2015 171    46   0.082    0.01     266    0.03
 2015 172    47   0.086    0.01     280    0.04
 2015 173    48   0.089    0.01     290    0.04
 2015 174    49   0.094    0.01     310    0.04
 2015 175    50   0.103    0.01     338    0.04
 2015 176    51   0.105    0.01     347    0.04
 2015 177    52   0.106    0.01     351    0.04
 2015 178    53   0.111    0.01     368    0.03
 2015 179    54   0.116    0.01     384    0.03
 2015 180    55   0.120    0.01     400    0.03
 2015 181    56   0.125    0.01     418    0.03
 2015 182    57   0.131    0.01     440    0.03
 2015 183    58   0.137    0.01     461    0.03
 2015 184    59   0.143    0.02     480    0.03
 2015 185    60   0.149    0.02     503    0.03
 2015 186    61   0.156    0.02     531    0.03
 2015 187    62   0.163    0.02     555    0.03
 2015 188    63   0.166    0.02     567    0.03
 2015 189    64   0.169    0.02     578    0.22
 2015 190    65   0.172    0.02     588    0.19
 2015 191    66   0.178    0.03     611    0.16
 2015 192    67   0.185    0.03     641    0.14
 2015 193    68   0.193    0.03     669    0.12
 2015 194    69   0.200    0.03     696    0.11
 2015 195    70   0.206    0.04     721    0.10
 2015 196    71   0.209    0.04     732    0.08
 2015 197    72   0.212    0.04     744    0.07
 2015 198    73   0.216    0.04     762    0.06
 2015 199    74   0.219    0.04     771    0.05
 2015 200    75   0.222    0.04     786    0.04
 2015 201    76   0.225    0.04     796    0.04
 2015 202    77   0.230    0.05     815    0.03
 2015 203    78   0.232    0.05     824    0.03
 2015 204    79   0.235    0.05     836    0.03
 2015 205    80   0.237    0.05     847    0.02
 2015 206    81   0.239    0.05     854    0.02
 2015 207    82   0.241    0.05     862    0.02
 2015 208    83   0.255    0.06     920    0.02
 2015 209    84   0.268    0.07     973    0.02
 2015 210    85   0.269    0.07     978    0.03
 2015 211    86   0.270    0.07     982    0.02
 2015 212    87   0.271    0.07     987    0.02
 2015 213    88   0.305    0.09    1136    0.01
 2015 214    89   0.329    0.10    1248    0.04
 2015 215    90   0.347    0.12    1332    0.05
 2015 216    91   0.360    0.13    1395    0.05
 2015 217    92   0.370    0.14    1443    0.05
 2015 218    93   0.377    0.14    1479    0.04
 2015 219    94   0.383    0.15    1507    0.04
 2015 220    95   0.387    0.15    1528    0.03

*DSSAT Cropping System Model Ver. 4.7.5.007 -  MAR 01, 2026 21:19:28
@YEAR DOY   DAS    MCFD   MDEPD    MWAD    MWTD
 2015 147     0   0.000    0.00       0    0.00
 2015 148     1   0.000    0.00       0    0.00
 2015 149     2   0.000    0.00       0    0.00
 2015 150     3   0.000    0.00       0    0.00
 2015 151     4   0.000    0.00       0    0.00
 2015 152     5   0.000    0.00       0    0.00
 2015 153     6   0.000    0.00       0    0.00
 2015 154     7   0.000    0.00       0    0.00
 2015 155     8   0.000    0.00       0    0.00
 2015 156     9   0.000    0.00       0    0.00
 2015 157    10   0.000    0.00       0    0.00
 2015 158    11   0.000    0.00       0    0.00
 2015 159    12   0.000    0.00       0    0.00
 2015 160    13   0.000    0.00       0    0.00
 2015 161    14   0.000    0.00       0    0.00
 2015 162    15   0.000    0.00       0    0.00
 2015 163    16   0.000    0.00       0    0.00
 2015 164    17   0.000    0.00       0    0.00
 2015 165    18   0.000    0.00       1    0.00
 2015 166    19   0.000    0.00       1    0.00
 2015 167    20   0.000    0.00       1    0.00
 2015 168    21   0.000    0.00       1    0.00
 2015 169    22   0.001    0.00       3    0.00
 2015 170    23   0.003    0.00       9    0.00
 2015 171    24   0.003    0.00       9    0.00
 2015 172    25   0.003    0.00       9    0.00
 2015 173    26   0.003    0.00       9    0.00
 2015 174    27   0.003    0.00      10    0.00
 2015 175    28   0.003    0.00      11    0.00
 2015 176    29   0.007    0.00      23    0.00
 2015 177    30   0.013    0.00      40    0.00
 2015 178    31   0.016    0.00      49    0.01
 2015 179    32   0.016    0.00      49    0.01
 2015 180    33   0.016    0.00      49    0.01
 2015 181    34   0.016    0.00      49    0.01
 2015 182    35   0.016    0.00      52    0.01
 2015 183    36   0.017    0.00      54    0.01
 2015 184    37   0.019    0.00      59    0.01
 2015 185    38   0.027    0.00      84    0.01
 2015 186    39   0.031    0.00      98    0.01
 2015 187    40   0.038    0.00     120    0.02
 2015 188    41   0.045    0.00     143    0.02
 2015 189    42   0.052    0.00     166    0.05
 2015 190    43   0.056    0.00     179    0.06
 2015 191    44   0.057    0.00     185    0.06
 2015 192    45   0.063    0.00     204    0.05
 2015 193    46   0.063    0.00     205    0.06
 2015 194    47   0.068    0.00     221    0.05
 2015 195    48   0.076    0.00     246    0.05
 2015 196    49   0.082    0.01     269    0.05
 2015 197    50   0.084    0.01     274    0.05
 2015 198    51   0.090    0.01     293    0.05
 2015 199    52   0.097    0.01     320    0.05
 2015 200    53   0.099    0.01     324    0.05
 2015 201    54   0.103    0.01     338    0.05
 2015 202    55   0.107    0.01     354    0.05
 2015 203    56   0.111    0.01     369    0.05
 2015 204    57   0.116    0.01     386    0.04
 2015 205    58   0.125    0.01     418    0.04
 2015 206    59   0.130    0.01     434    0.04
 2015 207    60   0.134    0.01     450    0.04
 2015 208    61   0.149    0.02     504    0.04
 2015 209    62   0.167    0.02     569    0.05
 2015 210    63   0.172    0.03     591    0.05
 2015 211    64   0.179    0.03     617    0.05
 2015 212    65   0.187    0.03     645    0.05
 2015 213    66   0.194    0.03     674    0.04
 2015 214    67   0.199    0.03     692    0.04
 2015 215    68   0.204    0.04     714    0.04
 2015 216    69   0.209    0.04     735    0.04
 2015 217    70   0.215    0.04     758    0.03
 2015 218    71   0.219    0.04     772    0.03
 2015 219    72   0.225    0.04     796    0.03
 2015 220    73   0.228    0.05     809    0.03
 2015 221    74   0.234    0.05     832    0.02
 2015 222    75   0.236    0.05     843    0.02
 2015 223    76   0.239    0.05     854    0.02
 2015 224    77   0.242    0.05     866    0.02
 2015 225    78   0.249    0.06     895    0.02
 2015 226    79   0.251    0.06     904    0.02
 2015 227    80   0.253    0.06     913    0.02
 2015 228    81   0.256    0.06     922    0.01
 2015 229    82   0.258    0.06     934    0.01
 2015 230    83   0.260    0.06     941    0.01
 2015 231    84   0.262    0.06     948    0.01
 2015 232    85   0.268    0.07     976    0.01
 2015 233    86   0.270    0.07     984    0.01
 2015 234    87   0.302    0.09    1122    0.01
 2015 235    88   0.326    0.10    1231    0.03
 2015 236    89   0.344    0.12    1318    0.05
 2015 237    90   0.358    0.13    1387    0.05
 2015 238    91   0.369    0.14    1441    0.05
 2015 239    92   0.378    0.15    1483    0.55
 2015 240    93   0.384    0.15    1516    0.38
 2015 241    94   0.390    0.16    1542    0.26

*DSSAT Cropping System Model Ver. 4.7.5.007 -  MAR 01, 2026 21:19:28
@YEAR DOY   DAS    MCFD   MDEPD    MWAD    MWTD
 2015 160     0   0.000    0.00       0    0.00
 2015 161     1   0.000    0.00       0    0.00
 2015 162     2   0.000    0.00       0    0.00
 2015 163     3   0.000    0.00       0    0.00
 2015 164     4   0.000    0.00       0    0.00
 2015 165     5   0.000    0.00       0    0.00
 2015 166     6   0.000    0.00       0    0.00
 2015 167     7   0.000    0.00       0    0.00
 2015 168     8   0.000    0.00       0    0.00
 2015 169     9   0.000    0.00       0    0.00
 2015 170    10   0.000    0.00       0    0.00
 2015 171    11   0.000    0.00       0    0.00
 2015 172    12   0.000    0.00       0    0.00
 2015 173    13   0.000    0.00       0    0.00
 2015 174    14   0.000    0.00       0    0.00
 2015 175    15   0.000    0.00       0    0.00
 2015 176    16   0.000    0.00       1    0.00
 2015 177    17   0.000    0.00       1    0.00
 2015 178    18   0.001    0.00       2    0.00
 2015 179    19   0.001    0.00       2    0.00
 2015 180    20   0.001    0.00       2    0.00
 2015 181    21   0.001    0.00       2    0.00
 2015 182    22   0.001    0.00       3    0.00
 2015 183    23   0.001    0.00       4    0.00
 2015 184    24   0.002    0.00       5    0.00
 2015 185    25   0.002    0.00       7    0.00
 2015 186    26   0.003    0.00       9    0.00
 2015 187    27   0.003    0.00       9    0.00
 2015 188    28   0.004    0.00      11    0.00
 2015 189    29   0.004    0.00      11    0.00
 2015 190    30   0.004    0.00      11    0.00
 2015 191    31   0.004    0.00      11    0.00
 2015 192    32   0.005    0.00      16    0.00
 2015 193    33   0.007    0.00      23    0.01
 2015 194    34   0.009    0.00      29    0.01
 2015 195    35   0.015    0.00      47    0.01
 2015 196    36   0.017    0.00      55    0.01
 2015 197    37   0.023    0.00      72    0.01
 2015 198    38   0.029    0.00      93    0.02
 2015 199    39   0.033    0.00     105    0.02
 2015 200    40   0.040    0.00     127    0.02
 2015 201    41   0.047    0.00     149    0.02
 2015 202    42   0.052    0.00     168    0.03
 2015 203    43   0.056    0.00     180    0.03
 2015 204    44   0.061    0.00     196    0.03
 2015 205    45   0.069    0.00     222    0.03
 2015 206    46   0.077    0.00     250    0.04
 2015 207    47   0.077    0.00     250    0.04
 2015 208    48   0.081    0.01     263    0.04
 2015 209    49   0.089    0.01     292    0.04
 2015 210    50   0.090    0.01     295    0.04
 2015 211    51   0.095    0.01     311    0.04
 2015 212    52   0.101    0.01     332    0.04
 2015 213    53   0.109    0.01     361    0.04
 2015 214    54   0.110    0.01     363    0.04
 2015 215    55   0.113    0.01     373    0.04
 2015 216    56   0.118    0.01     392    0.03
 2015 217    57   0.127    0.01     423    0.03
 2015 218    58   0.132    0.01     443    0.04
 2015 219    59   0.138    0.02     463    0.04
 2015 220    60   0.143    0.02     483    0.04
 2015 221    61   0.148    0.02     501    0.04
 2015 222    62   0.154    0.02     521    0.03
 2015 223    63   0.160    0.02     545    0.03
 2015 224    64   0.168    0.02     576    0.03
 2015 225    65   0.173    0.03     593    0.03
 2015 226    66   0.181    0.03     622    0.03
 2015 227    67   0.189    0.03     653    0.03
 2015 228    68   0.195    0.03     679    0.03
 2015 229    69   0.202    0.04     707    0.03
 2015 230    70   0.207    0.04     726    0.03
 2015 231    71   0.213    0.04     749    0.03
 2015 232    72   0.220    0.04     776    0.03
 2015 233    73   0.224    0.04     794    0.03
 2015 234    74   0.229    0.05     813    0.03
 2015 235    75   0.232    0.05     827    0.03
 2015 236    76   0.237    0.05     843    0.02
 2015 237    77   0.240    0.05     856    0.02
 2015 238    78   0.242    0.05     867    0.02
 2015 239    79   0.246    0.05     882    0.33
 2015 240    80   0.248    0.06     891    0.26
 2015 241    81   0.250    0.06     900    0.21
 2015 242    82   0.253    0.06     913    0.17
 2015 243    83   0.256    0.06     923    0.13
 2015 244    84   0.258    0.06     932    0.11
 2015 245    85   0.260    0.06     941    0.08
 2015 246    86   0.301    0.09    1118    0.07
 2015 247    87   0.331    0.11    1257    0.08
 2015 248    88   0.354    0.12    1368    0.09
 2015 249    89   0.372    0.14    1455    0.08
 2015 250    90   0.386    0.15    1524    0.07
 2015 251    91   0.397    0.16    1579    0.06
 2015 252    92   0.405    0.17    1622    0.60
 2015 253    93   0.411    0.18    1656    0.40

*DSSAT Cropping System Model Ver. 4.7.5.007 -  MAR 01, 2026 21:19:28
@YEAR DOY   DAS    MCFD   MDEPD    MWAD    MWTD
 2016 131     0   0.000    0.00       0    0.00
 2016 132     1   0.000    0.00       0    0.00
 2016 133     2   0.000    0.00       0    0.00
 2016 134     3   0.000    0.00       0    0.00
 2016 135     4   0.000    0.00       0    0.00
 2016 136     5   0.000    0.00       0    0.00
 2016 137     6   0.000    0.00       0    0.00
 2016 138     7   0.000    0.00       0    0.00
 2016 139     8   0.000    0.00       0    0.00
 2016 140     9   0.000    0.00       0    0.00
 2016 141    10   0.000    0.00       0    0.00
 2016 142    11   0.000    0.00       0    0.00
 2016 143    12   0.000    0.00       0    0.00
 2016 144    13   0.000    0.00       0    0.00
 2016 145    14   0.000    0.00       0    0.00
 2016 146    15   0.000    0.00       1    0.00
 2016 147    16   0.000    0.00       1    0.00
 2016 148    17   0.000    0.00       1    0.00
 2016 149    18   0.001    0.00       2    0.00
 2016 150    19   0.001    0.00       3    0.00
 2016 151    20   0.001    0.00       4    0.00
 2016 152    21   0.002    0.00       5    0.00
 2016 153    22   0.002    0.00       6    0.00
 2016 154    23   0.003    0.00       8    0.00
 2016 155    24   0.003    0.00      10    0.00
 2016 156    25   0.004    0.00      12    0.00
 2016 157    26   0.004    0.00      14    0.00
 2016 158    27   0.005    0.00      15    0.00
 2016 159    28   0.006    0.00      19    0.00
 2016 160    29   0.013    0.00      42    0.00
 2016 161    30   0.017    0.00      54    0.01
 2016 162    31   0.023    0.00      73    0.01
 2016 163    32   0.030    0.00      94    0.01
 2016 164    33   0.035    0.00     110    0.02
 2016 165    34   0.043    0.00     136    0.02
 2016 166    35   0.050    0.00     161    0.02
 2016 167    36   0.055    0.00     176    0.03
 2016 168    37   0.061    0.00     196    0.03
 2016 169    38   0.066    0.00     214    0.03
 2016 170    39   0.068    0.00     221    0.03
 2016 171    40   0.076    0.00     246    0.03
 2016 172    41   0.078    0.00     253    0.04
 2016 173    42   0.083    0.01     272    0.03
 2016 174    43   0.089    0.01     292    0.04
 2016 175    44   0.095    0.01     312    0.04
 2016 176    45   0.104    0.01     342    0.04
 2016 177    46   0.106    0.01     350    0.04
 2016 178    47   0.114    0.01     378    0.04
 2016 179    48   0.115    0.01     383    0.04
 2016 180    49   0.118    0.01     393    0.04
 2016 181    50   0.123    0.01     410    0.03
 2016 182    51   0.132    0.01     441    0.03
 2016 183    52   0.135    0.01     452    0.04
 2016 184    53   0.140    0.02     471    0.03
 2016 185    54   0.146    0.02     493    0.03
 2016 186    55   0.152    0.02     514    0.03
 2016 187    56   0.158    0.02     539    0.03
 2016 188    57   0.167    0.02     573    0.03
 2016 189    58   0.174    0.03     599    0.04
 2016 190    59   0.178    0.03     614    0.03
 2016 191    60   0.186    0.03     645    0.03
 2016 192    61   0.196    0.03     681    0.03
 2016 193    62   0.205    0.04     716    0.03
 2016 194    63   0.214    0.04     752    0.04
 2016 195    64   0.221    0.04     779    0.04
 2016 196    65   0.225    0.04     798    0.03
 2016 197    66   0.232    0.05     823    0.03
 2016 198    67   0.238    0.05     849    0.03
 2016 199    68   0.244    0.05     873    0.03
 2016 200    69   0.247    0.05     887    0.03
 2016 201    70   0.250    0.06     898    0.02
 2016 202    71   0.254    0.06     914    0.02
 2016 203    72   0.257    0.06     926    0.02
 2016 204    73   0.261    0.06     944    0.02
 2016 205    74   0.264    0.06     960    0.02
 2016 206    75   0.267    0.07     970    0.02
 2016 207    76   0.270    0.07     983    0.01
 2016 208    77   0.274    0.07     999    0.01
 2016 209    78   0.276    0.07    1010    0.01
 2016 210    79   0.279    0.07    1023    0.01
 2016 211    80   0.282    0.07    1034    0.01
 2016 212    81   0.284    0.07    1042    0.01
 2016 213    82   0.324    0.10    1225    0.01
 2016 214    83   0.354    0.12    1365    0.04
 2016 215    84   0.376    0.14    1473    0.06
 2016 216    85   0.392    0.16    1555    0.06
 2016 217    86   0.404    0.17    1619    0.05
 2016 218    87   0.414    0.18    1669    0.05
 2016 219    88   0.421    0.19    1707    0.04
 2016 220    89   0.426    0.19    1736    0.03

*DSSAT Cropping System Model Ver. 4.7.5.007 -  MAR 01, 2026 21:19:28
@YEAR DOY   DAS    MCFD   MDEPD    MWAD    MWTD
 2016 153     0   0.000    0.00       0    0.00
 2016 154     1   0.000    0.00       0    0.00
 2016 155     2   0.000    0.00       0    0.00
 2016 156     3   0.000    0.00       0    0.00
 2016 157     4   0.000    0.00       0    0.00
 2016 158     5   0.000    0.00       0    0.00
 2016 159     6   0.000    0.00       0    0.00
 2016 160     7   0.000    0.00       0    0.00
 2016 161     8   0.000    0.00       0    0.00
 2016 162     9   0.000    0.00       0    0.00
 2016 163    10   0.000    0.00       0    0.00
 2016 164    11   0.000    0.00       0    0.00
 2016 165    12   0.000    0.00       0    0.00
 2016 166    13   0.000    0.00       0    0.00
 2016 167    14   0.000    0.00       0    0.00
 2016 168    15   0.000    0.00       0    0.00
 2016 169    16   0.000    0.00       0    0.00
 2016 170    17   0.000    0.00       1    0.00
 2016 171    18   0.000    0.00       1    0.00
 2016 172    19   0.000    0.00       1    0.00
 2016 173    20   0.001    0.00       2    0.00
 2016 174    21   0.001    0.00       3    0.00
 2016 175    22   0.001    0.00       4    0.00
 2016 176    23   0.002    0.00       6    0.00
 2016 177    24   0.002    0.00       7    0.00
 2016 178    25   0.003    0.00       9    0.00
 2016 179    26   0.003    0.00      11    0.00
 2016 180    27   0.004    0.00      13    0.00
 2016 181    28   0.005    0.00      15    0.00
 2016 182    29   0.005    0.00      16    0.00
 2016 183    30   0.007    0.00      22    0.00
 2016 184    31   0.011    0.00      34    0.00
 2016 185    32   0.014    0.00      45    0.01
 2016 186    33   0.022    0.00      70    0.01
 2016 187    34   0.028    0.00      88    0.01
 2016 188    35   0.034    0.00     107    0.02
 2016 189    36   0.043    0.00     139    0.02
 2016 190    37   0.054    0.00     174    0.02
 2016 191    38   0.059    0.00     189    0.03
 2016 192    39   0.061    0.00     197    0.03
 2016 193    40   0.069    0.00     224    0.03
 2016 194    41   0.074    0.00     241    0.03
 2016 195    42   0.076    0.00     248    0.04
 2016 196    43   0.083    0.01     271    0.03
 2016 197    44   0.092    0.01     302    0.04
 2016 198    45   0.095    0.01     312    0.04
 2016 199    46   0.101    0.01     332    0.04
 2016 200    47   0.107    0.01     355    0.04
 2016 201    48   0.113    0.01     375    0.04
 2016 202    49   0.121    0.01     405    0.04
 2016 203    50   0.122    0.01     406    0.04
 2016 204    51   0.127    0.01     425    0.04
 2016 205    52   0.137    0.01     459    0.04
 2016 206    53   0.142    0.02     479    0.04
 2016 207    54   0.144    0.02     487    0.04
 2016 208    55   0.149    0.02     505    0.03
 2016 209    56   0.155    0.02     526    0.03
 2016 210    57   0.161    0.02     547    0.03
 2016 211    58   0.167    0.02     569    0.03
 2016 212    59   0.175    0.03     601    0.03
 2016 213    60   0.185    0.03     638    0.03
 2016 214    61   0.191    0.03     662    0.04
 2016 215    62   0.199    0.03     694    0.03
 2016 216    63   0.205    0.04     716    0.03
 2016 217    64   0.212    0.04     746    0.03
 2016 218    65   0.222    0.04     784    0.03
 2016 219    66   0.228    0.05     807    0.03
 2016 220    67   0.234    0.05     834    0.03
 2016 221    68   0.240    0.05     856    0.03
 2016 222    69   0.245    0.05     880    0.03
 2016 223    70   0.249    0.06     895    0.03
 2016 224    71   0.253    0.06     913    0.02
 2016 225    72   0.256    0.06     926    0.02
 2016 226    73   0.259    0.06     939    0.02
 2016 227    74   0.262    0.06     951    0.02
 2016 228    75   0.265    0.06     963    0.02
 2016 229    76   0.268    0.07     975    0.37
 2016 230    77   0.270    0.07     984    0.29
 2016 231    78   0.272    0.07     993    0.23
 2016 232    79   0.274    0.07    1002    0.18
 2016 233    80   0.276    0.07    1010    0.14
 2016 234    81   0.278    0.07    1019    0.11
 2016 235    82   0.322    0.10    1213    0.08
 2016 236    83   0.353    0.12    1362    0.10
 2016 237    84   0.377    0.14    1478    0.10
 2016 238    85   0.395    0.16    1569    0.09
 2016 239    86   0.409    0.18    1642    0.08
 2016 240    87   0.420    0.19    1701    0.63
 2016 241    88   0.428    0.20    1747    0.45
 2016 242    89   0.435    0.20    1784    0.29

*DSSAT Cropping System Model Ver. 4.7.5.007 -  MAR 01, 2026 21:19:28
@YEAR DOY   DAS    MCFD   MDEPD    MWAD    MWTD
 2017 107     0   0.000    0.00       0    0.00
 2017 108     1   0.000    0.00       0    0.00
 2017 109     2   0.000    0.00       0    0.00
 2017 110     3   0.000    0.00       0    0.00
 2017 111     4   0.000    0.00       0    0.00
 2017 112     5   0.000    0.00       0    0.00
 2017 113     6   0.000    0.00       0    0.00
 2017 114     7   0.000    0.00       0    0.00
 2017 115     8   0.000    0.00       0    0.00
 2017 116     9   0.000    0.00       0    0.00
 2017 117    10   0.000    0.00       0    0.00
 2017 118    11   0.000    0.00       0    0.00
 2017 119    12   0.000    0.00       0    0.00
 2017 120    13   0.000    0.00       0    0.00
 2017 121    14   0.000    0.00       0    0.00
 2017 122    15   0.000    0.00       0    0.00
 2017 123    16   0.000    0.00       1    0.00
 2017 124    17   0.000    0.00       1    0.00
 2017 125    18   0.000    0.00       1    0.00
 2017 126    19   0.001    0.00       2    0.00
 2017 127    20   0.001    0.00       2    0.00
 2017 128    21   0.001    0.00       3    0.00
 2017 129    22   0.001    0.00       4    0.00
 2017 130    23   0.001    0.00       4    0.00
 2017 131    24   0.001    0.00       4    0.00
 2017 132    25   0.001    0.00       4    0.00
 2017 133    26   0.002    0.00       6    0.00
 2017 134    27   0.003    0.00       8    0.00
 2017 135    28   0.003    0.00      10    0.00
 2017 136    29   0.006    0.00      18    0.00
 2017 137    30   0.011    0.00      35    0.01
 2017 138    31   0.016    0.00      49    0.01
 2017 139    32   0.020    0.00      63    0.02
 2017 140    33   0.026    0.00      83    0.02
 2017 141    34   0.030    0.00      95    0.03
 2017 142    35   0.036    0.00     115    0.03
 2017 143    36   0.047    0.00     149    0.03
 2017 144    37   0.051    0.00     165    0.04
 2017 145    38   0.054    0.00     172    0.04
 2017 146    39   0.060    0.00     195    0.04
 2017 147    40   0.066    0.00     213    0.04
 2017 148    41   0.074    0.00     239    0.04
 2017 149    42   0.076    0.00     246    0.04
 2017 150    43   0.081    0.01     264    0.09
 2017 151    44   0.087    0.01     284    0.10
 2017 152    45   0.093    0.01     304    0.11
 2017 153    46   0.101    0.01     333    0.11
 2017 154    47   0.104    0.01     342    0.11
 2017 155    48   0.107    0.01     353    0.10
 2017 156    49   0.109    0.01     361    0.09
 2017 157    50   0.113    0.01     375    0.09
 2017 158    51   0.117    0.01     389    0.08
 2017 159    52   0.121    0.01     403    0.08
 2017 160    53   0.125    0.01     417    0.07
 2017 161    54   0.129    0.01     431    0.07
 2017 162    55   0.133    0.01     445    0.06
 2017 163    56   0.136    0.01     456    0.06
 2017 164    57   0.146    0.02     494    0.05
 2017 165    58   0.156    0.02     530    0.05
 2017 166    59   0.163    0.02     558    0.05
 2017 167    60   0.171    0.02     588    0.05
 2017 168    61   0.178    0.03     613    0.05
 2017 169    62   0.184    0.03     636    0.05
 2017 170    63   0.188    0.03     651    0.04
 2017 171    64   0.192    0.03     665    0.04
 2017 172    65   0.197    0.03     684    0.04
 2017 173    66   0.201    0.04     701    0.03
 2017 174    67   0.211    0.04     739    0.03
 2017 175    68   0.213    0.04     749    0.03
 2017 176    69   0.216    0.04     759    0.03
 2017 177    70   0.218    0.04     768    0.03
 2017 178    71   0.221    0.04     780    0.02
 2017 179    72   0.224    0.04     793    0.02
 2017 180    73   0.227    0.05     806    0.02
 2017 181    74   0.229    0.05     814    0.02
 2017 182    75   0.231    0.05     822    0.02
 2017 183    76   0.233    0.05     831    0.01
 2017 184    77   0.235    0.05     837    0.01
 2017 185    78   0.238    0.05     848    0.01
 2017 186    79   0.240    0.05     857    0.01
 2017 187    80   0.241    0.05     863    0.01
 2017 188    81   0.243    0.05     869    0.01
 2017 189    82   0.244    0.05     875    0.01
 2017 190    83   0.246    0.05     882    0.01
 2017 191    84   0.287    0.08    1058    0.01
 2017 192    85   0.317    0.10    1190    0.04
 2017 193    86   0.338    0.11    1291    0.05
 2017 194    87   0.355    0.12    1370    0.06
 2017 195    88   0.368    0.14    1432    0.06
 2017 196    89   0.377    0.14    1480    0.05
 2017 197    90   0.385    0.15    1518    0.04
 2017 198    91   0.390    0.16    1547    0.04
