*N2O emissions output file

*DSSAT Cropping System Model Ver. 4.7.5.007 -  MAR 01, 2026 21:19:28
!              |---------------------------------- Cumulative ---------------------------------|---------------------------------- Daily --------------------------------------|
!               N2Oemit  N2emit  NOemit     CO2   Denit  Nitrif   N2O-denit+nit      N2      NO N2Oemit  N2emit  NOemit     CO2   Denit  Nitrif   N2O-denit+nit      N2      NO   Denitrification (g[N]/ha) by soil depth (cm):                           Nitrification (g[N]/ha) by soil depth (cm):                             N2O flux (g[N]/ha) by soil depth (cm):                                  N2 flux (g[N]/ha) by soil depth (cm):                                   NO flux (g[N]/ha) by soil depth (cm):
!                 kg/ha   kg/ha   kg/ha   kg/ha   kg/ha   kg/ha   kg/ha   kg/ha   kg/ha   kg/ha    g/ha    g/ha    g/ha    g/ha    g/ha    g/ha    g/ha    g/ha    g/ha    g/ha    0-10   10-20   20-30   30-40   40-50   50-60   60-70   70-80   80-90    0-10   10-20   20-30   30-40   40-50   50-60   60-70   70-80   80-90    0-10   10-20   20-30   30-40   40-50   50-60   60-70   70-80   80-90    0-10   10-20   20-30   30-40   40-50   50-60   60-70   70-80   80-90    0-10   10-20   20-30   30-40   40-50   50-60   60-70   70-80   80-90
@YEAR DOY   DAS   N2OEC    N2EC    NOEC   CO2TC    NDNC    NITC   N2ODC   N2ONC   N2FLC   NOFLC   N2OED    N2ED    NOED   CO2TD    NDND   NITRD   N2ODD   N2OND   N2FLD   NOFLD   NDN1D   NDN2D   NDN3D   NDN4D   NDN5D   NDN6D   NDN7D   NDN8D   NDN9D   NIT1D   NIT2D   NIT3D   NIT4D   NIT5D   NIT6D   NIT7D   NIT8D   NIT9D   N2O1D   N2O2D   N2O3D   N2O4D   N2O5D   N2O6D   N2O7D   N2O8D   N2O9D   N2F1D   N2F2D   N2F3D   N2F4D   N2F5D   N2F6D   N2F7D   N2F8D   N2F9D   NOF1D   NOF2D   NOF3D   NOF4D   NOF5D   NOF6D   NOF7D   NOF8D   NOF9D   
 2015 103     1    0.00    0.00    0.00       6    0.00     1.8   0.000   0.002   0.000   0.002     0.0     0.0     0.0    5888     0.0    1775    0.00    1.77    0.00    2.00     0.0     0.0     0.0     0.0     0.0     0.0     0.0     0.0     0.0    195.    207.    203.    198.    197.    195.    194.    193.    192.     0.2     0.2     0.2     0.2     0.2     0.2     0.2     0.2     0.2     0.0     0.0     0.0     0.0     0.0     0.0     0.0     0.0     0.0     0.3     0.2     0.2     0.2     0.2     0.2     0.2     0.2     0.2
 2015 104     2    0.00    0.00    0.00      12    0.00     2.9   0.000   0.003   0.000   0.003     0.0     0.0     0.0    5626     0.0    1118    0.00    1.12    0.00    0.69     0.0     0.0     0.0     0.0     0.0     0.0     0.0     0.0     0.0    534.     29.     33.     30.     31.     58.     66.    169.    168.     0.5     0.0     0.0     0.0     0.0     0.1     0.1     0.2     0.2     0.0     0.0     0.0     0.0     0.0     0.0     0.0     0.0     0.0     0.2     0.0     0.0     0.0     0.0     0.0     0.1     0.2     0.1
 2015 105     3    0.00    0.00    0.00      17    0.00     4.1   0.000   0.004   0.000   0.003     0.0     0.0     0.0    5575     0.0    1203    0.00    1.20    0.00    0.53     0.0     0.0     0.0     0.0     0.0     0.0     0.0     0.0     0.0    795.     31.     34.     29.     28.     30.     54.     56.    146.     0.8     0.0     0.0     0.0     0.0     0.0     0.1     0.1     0.1     0.0     0.0     0.0     0.0     0.0     0.0     0.0     0.0     0.0     0.3     0.0     0.0     0.0     0.0     0.0     0.0     0.0     0.1
 2015 106     4    0.00    0.00    0.00      23    0.00     5.6   0.000   0.006   0.000   0.004     0.0     0.0     0.0    5717     0.0    1498    0.00    1.50    0.00    0.57     0.0     0.0     0.0     0.0     0.0     0.0     0.0     0.0     0.0   1075.     49.     42.     33.     33.     33.     50.     54.    129.     1.1     0.0     0.0     0.0     0.0     0.0     0.0     0.1     0.1     0.0     0.0     0.0     0.0     0.0     0.0     0.0     0.0     0.0     0.4     0.0     0.0     0.0     0.0     0.0     0.0     0.0     0.1
 2015 107     5    0.00    0.00    0.00      28    0.00     6.7   0.000   0.007   0.000   0.004     0.0     0.0     0.0    5473     0.0    1058    0.00    1.06    0.00    0.27     0.0     0.0     0.0     0.0     0.0     0.0     0.0     0.0     0.0    780.     50.     36.     30.     30.     28.     27.     35.     42.     0.8     0.1     0.0     0.0     0.0     0.0     0.0     0.0     0.0     0.0     0.0     0.0     0.0     0.0     0.0     0.0     0.0     0.0     0.2     0.0     0.0     0.0     0.0     0.0     0.0     0.0     0.0
 2015 108     6    0.00    0.00    0.00      34    0.48     7.9   0.006   0.008   0.475   0.005     0.1     0.6     0.0    5605   481.7    1269    6.38    1.27  475.30    1.28    58.5    61.3    66.2    72.1    73.5    74.4    75.5     0.0     0.0    965.     58.     46.     34.     33.     31.     29.     34.     39.     1.9     0.8     1.0     1.0     1.0     1.0     1.0     0.0     0.0    57.5    60.5    65.3    71.2    72.6    73.5    74.6     0.0     0.0     0.4     0.1     0.2     0.1     0.1     0.1     0.1     0.0     0.0
 2015 109     7    0.00    0.00    0.00      39    1.08     8.9   0.013   0.009   1.065   0.006     0.0     0.6     0.0    5408   596.4    1001    6.30    1.00  590.11    1.11    66.5    60.7    74.7    75.7    78.5    79.3    79.8    81.1     0.0    741.     56.     39.     32.     31.     30.     28.     25.     19.     1.5     0.7     0.8     0.8     0.8     0.8     0.8     1.0     0.0    65.8    60.1    74.0    75.0    77.7    78.5    79.0    80.1     0.0     0.2     0.1     0.1     0.1     0.1     0.1     0.1     0.1     0.0
 2015 110     8    0.00    0.00    0.00      45    1.44    10.3   0.016   0.010   1.420   0.007     0.1     2.5     0.0    5822   357.7    1394    3.53    1.39  354.18    0.88    46.4    33.8    44.2    44.5    46.4    47.0    47.4    48.1     0.0    992.     81.     61.     50.     49.     47.     45.     39.     32.     1.5     0.4     0.5     0.5     0.5     0.5     0.5     0.6     0.0    45.9    33.5    43.8    44.0    45.9    46.6    46.9    47.5     0.0     0.3     0.1     0.1     0.1     0.1     0.1     0.1     0.1     0.0
 2015 111     9    0.00    0.00    0.00      51    1.92    11.2   0.021   0.011   1.904   0.008     0.0     0.4     0.0    5652   488.9     879    4.69    0.88  484.25    0.91   102.1    70.5    61.6    47.5    42.3    40.9    40.7    41.2    42.2    504.     50.     50.     48.     51.     50.     48.     43.     35.     1.4     0.6     0.6     0.5     0.5     0.4     0.4     0.4     0.7   101.2    69.9    61.0    47.0    41.9    40.5    40.3    40.8    41.6     0.2     0.1     0.1     0.1     0.1     0.1     0.1     0.1     0.1
 2015 112    10    0.00    0.01    0.00      56    2.49    12.2   0.026   0.012   2.461   0.009     0.0     1.5     0.0    5712   562.7    1001    5.11    1.00  557.62    0.96    77.6    63.5    74.8    77.0    80.9    64.6    45.0    39.9    39.4    662.     58.     43.     34.     33.     40.     48.     45.     38.     1.4     0.6     0.7     0.7     0.7     0.6     0.5     0.4     0.5    76.9    62.9    74.2    76.3    80.2    64.0    44.6    39.5    38.9     0.2     0.1     0.1     0.1     0.1     0.1     0.1     0.1     0.1
 2015 113    11    0.00    0.01    0.00      62    2.81    13.5   0.029   0.014   2.778   0.010     0.2     5.8     0.0    5873   320.0    1329    3.16    1.33  316.80    0.84    50.5    33.8    43.1    44.4    46.9    36.6    23.9    20.6    20.1    868.     82.     64.     52.     50.     54.     58.     54.     46.     1.4     0.4     0.5     0.5     0.5     0.4     0.3     0.3     0.3    50.0    33.5    42.7    44.0    46.5    36.3    23.7    20.4    19.9     0.3     0.1     0.1     0.1     0.1     0.1     0.1     0.1     0.1
 2015 114    12    0.00    0.01    0.00      68    3.42    14.3   0.034   0.014   3.382   0.011     0.0     0.7     0.0    5515   608.8     766    5.29    0.77  603.50    0.92    87.1    65.2    71.6    73.5    77.4    78.9    79.5    51.0    24.5    455.     52.     42.     35.     34.     33.     31.     40.     44.     1.2     0.6     0.7     0.7     0.7     0.7     0.7     0.5     0.3    86.4    64.7    71.0    72.8    76.8    78.3    78.9    50.5    24.2     0.2     0.1     0.1     0.1     0.1     0.1     0.1     0.1     0.1
 2015 115    13    0.00    0.02    0.00      74    3.95    15.3   0.039   0.015   3.910   0.012     0.1     4.2     0.0    5712   533.1     999    4.80    1.00  528.26    0.93    62.2    57.5    58.2    66.2    69.1    70.2    70.6    51.5    27.6    656.     58.     52.     39.     38.     37.     35.     40.     43.     1.3     0.6     0.6     0.6     0.6     0.6     0.7     0.5     0.3    61.6    57.0    57.6    65.6    68.5    69.6    70.0    51.0    27.4     0.2     0.1     0.1     0.1     0.1     0.1     0.1     0.1     0.1
 2015 116    14    0.00    0.03    0.00      79    4.25    16.6   0.042   0.017   4.209   0.013     0.3    11.8     0.1    5897   302.4    1297    3.01    1.30  299.35    0.84    38.6    29.7    32.8    38.3    40.1    40.8    41.1    28.5    12.5    819.     84.     72.     57.     56.     54.     52.     52.     51.     1.3     0.4     0.4     0.4     0.4     0.4     0.4     0.3     0.2    38.1    29.4    32.5    38.0    39.7    40.4    40.7    28.2    12.4     0.3     0.1     0.1     0.1     0.1     0.1     0.1     0.1     0.0
 2015 117    15    0.00    0.03    0.00      85    4.60    17.5   0.046   0.017   4.550   0.013     0.0     1.4     0.0    5777   343.8     894    3.29    0.89  340.50    0.74   104.9    42.2    27.6    31.9    33.1    33.5    33.7    25.2    11.7    413.     71.     75.     60.     59.     57.     55.     53.     51.     1.3     0.5     0.4     0.4     0.4     0.4     0.4     0.3     0.2   103.9    41.8    27.4    31.6    32.8    33.2    33.3    24.9    11.6     0.2     0.1     0.1     0.1     0.1     0.1     0.1     0.1     0.0
 2015 118    16    0.00    0.04    0.00      91    4.86    18.6   0.048   0.019   4.815   0.014     0.2     7.8     0.0    5859   268.0    1105    2.71    1.11  265.25    0.74    68.1    38.4    23.4    26.4    26.9    26.9    26.9    21.0    10.0    601.     74.     77.     63.     63.     61.     59.     56.     52.     1.3     0.4     0.3     0.3     0.3     0.3     0.3     0.3     0.2    67.4    38.0    23.1    26.2    26.6    26.6    26.6    20.8     9.9     0.2     0.1     0.1     0.1     0.1     0.1     0.1     0.1     0.0
 2015 119    17    0.00    0.04    0.00      97    5.52    20.3   0.054   0.020   5.468   0.015     0.0     0.5     0.0    5442   658.7    1684    5.64    1.68  653.05    1.09    94.5    53.5    64.4    68.6    75.1    78.8    80.8    82.3    60.6   1389.     58.     43.     36.     34.     33.     31.     28.     32.     2.2     0.5     0.6     0.6     0.7     0.7     0.7     0.7     0.6    93.8    53.0    63.9    68.0    74.5    78.2    80.1    81.6    60.0     0.3     0.1     0.1     0.1     0.1     0.1     0.1     0.1     0.1
 2015 120    18    0.00    0.05    0.00     102    5.90    23.3   0.058   0.023   5.842   0.016     0.2     7.4     0.0    5773   377.6    2989    3.63    2.99  374.01    1.15    65.0    23.2    34.6    38.3    42.9    45.5    46.7    47.7    33.7   2556.     81.     64.     53.     52.     50.     48.     43.     42.     3.2     0.3     0.4     0.4     0.5     0.5     0.5     0.5     0.4    64.4    23.0    34.2    38.0    42.5    45.0    46.3    47.3    33.3     0.5     0.1     0.1     0.1     0.1     0.1     0.1     0.1     0.1
 2015 121    19    0.00    0.05    0.00     107    6.33    25.0   0.061   0.025   6.268   0.017     0.1     3.7     0.0    4753   429.7    1781    3.91    1.78  425.83    0.91    80.6    50.3    55.9    57.2    41.5    37.9    37.6    38.3    30.4   1497.     39.     31.     28.     38.     40.     39.     36.     34.     2.2     0.5     0.5     0.5     0.4     0.4     0.4     0.4     0.3    79.8    49.9    55.4    56.7    41.1    37.6    37.3    38.0    30.1     0.3     0.1     0.1     0.1     0.1     0.1     0.1     0.1     0.1
 2015 122    20    0.00    0.06    0.00     112    6.56    27.4   0.064   0.027   6.499   0.018     0.4    16.0     0.1    4788   233.0    2404    2.36    2.40  230.68    0.94    49.8    23.9    30.4    31.9    22.3    20.0    19.8    20.2    14.9   2033.     58.     48.     41.     47.     48.     47.     43.     40.     2.6     0.3     0.3     0.3     0.3     0.3     0.2     0.2     0.2    49.2    23.6    30.1    31.6    22.0    19.8    19.6    20.0    14.7     0.5     0.1     0.1     0.1     0.1     0.1     0.1     0.1     0.0
 2015 123    21    0.00    0.10    0.00     117    6.66    30.2   0.065   0.030   6.598   0.019     1.0    34.8     0.2    4747   100.3    2757    1.11    2.76   99.20    1.02    23.3     7.4    13.7    16.0    10.0     8.5     8.2     8.4     4.7   2330.     69.     59.     49.     53.     53.     52.     48.     43.     2.6     0.1     0.2     0.2     0.2     0.1     0.1     0.1     0.1    23.0     7.3    13.6    15.9     9.9     8.4     8.1     8.3     4.7     0.7     0.0     0.0     0.0     0.0     0.0     0.0     0.0     0.0
 2015 124    22    0.00    0.15    0.00     121    6.68    33.2   0.065   0.033   6.612   0.020     1.6    51.9     0.3    4689    13.8    3049    0.16    3.05   13.64    1.10     0.9     0.0     3.5     5.7     1.9     0.8     0.5     0.5     0.0   2392.    204.     64.     55.     56.     56.     55.     51.    116.     2.4     0.2     0.1     0.1     0.1     0.1     0.1     0.1     0.1     0.9     0.0     3.4     5.7     1.9     0.8     0.5     0.5     0.0     0.9     0.1     0.0     0.0     0.0     0.0     0.0     0.0     0.0
 2015 125    23    0.00    0.15    0.00     126    6.84    34.8   0.067   0.035   6.775   0.021     0.0     1.6     0.0    4478   165.2    1539    1.47    1.54  163.69    0.55   155.6     0.0     5.4     3.8     0.5     0.0     0.0     0.0     0.0    824.     45.     58.     53.     54.    139.    136.    127.    103.     2.2     0.0     0.1     0.1     0.1     0.1     0.1     0.1     0.1   154.2     0.0     5.3     3.7     0.5     0.0     0.0     0.0     0.0     0.3     0.0     0.0     0.0     0.0     0.0     0.0     0.0     0.0
 2015 126    24    0.00    0.16    0.00     131    7.02    36.9   0.068   0.037   6.953   0.022     0.1     4.9     0.0    5248   179.8    2081    1.72    2.08  178.08    0.71   140.8     0.0    27.2    10.1     1.7     0.0     0.0     0.0     0.0   1295.     39.     56.     61.     66.    156.    152.    141.    115.     2.6     0.0     0.3     0.2     0.1     0.2     0.2     0.1     0.1   139.5     0.0    26.9    10.0     1.7     0.0     0.0     0.0     0.0     0.4     0.0     0.1     0.0     0.0     0.0     0.0     0.0     0.0
 2015 127    25    0.00    0.16    0.00     136    7.35    38.4   0.071   0.038   7.281   0.022     0.1     3.1     0.0    4996   330.8    1484    2.86    1.48  327.95    0.68   128.3     0.0    65.8    65.2    71.5     0.0     0.0     0.0     0.0   1055.     36.     31.     27.     26.     33.     48.    125.    103.     2.2     0.0     0.6     0.6     0.6     0.0     0.0     0.1     0.1   127.2     0.0    65.3    64.6    70.9     0.0     0.0     0.0     0.0     0.3     0.0     0.1     0.1     0.1     0.0     0.0     0.0     0.0
 2015 128    26    0.01    0.18    0.00     141    7.61    40.2   0.074   0.040   7.538   0.023     0.4    14.5     0.1    5137   259.0    1896    2.39    1.90  256.61    0.74    85.6     0.0    51.4    57.9    64.2     0.0     0.0     0.0     0.0   1468.     42.     40.     31.     30.     32.     44.    113.     95.     2.3     0.0     0.5     0.5     0.6     0.0     0.0     0.1     0.1    84.7     0.0    50.9    57.4    63.6     0.0     0.0     0.0     0.0     0.4     0.0     0.1     0.1     0.1     0.0     0.0     0.0     0.0
 2015 129    27    0.01    0.21    0.00     146    7.79    42.5   0.075   0.043   7.710   0.024     1.0    38.0     0.2    5218   174.0    2269    1.78    2.27  172.23    0.89    46.6    28.0    27.8    33.5    38.2     0.0     0.0     0.0     0.0   1781.     59.     56.     45.     44.     42.     49.    104.     88.     2.3     0.3     0.3     0.4     0.4     0.0     0.0     0.1     0.1    46.0    27.7    27.5    33.2    37.8     0.0     0.0     0.0     0.0     0.5     0.1     0.1     0.1     0.1     0.0     0.0     0.0     0.0
 2015 130    28    0.01    0.28    0.00     152    7.86    44.9   0.076   0.045   7.785   0.025     1.8    64.1     0.4    5254    75.7    2426    0.83    2.43   74.90    0.94    14.7     8.6    12.2    18.1    22.1     0.0     0.0     0.0     0.0   1902.     68.     66.     55.     54.     49.     52.     97.     83.     2.1     0.2     0.2     0.2     0.3     0.0     0.1     0.1     0.1    14.6     8.5    12.1    17.9    21.9     0.0     0.0     0.0     0.0     0.7     0.0     0.1     0.1     0.1     0.0     0.0     0.0     0.0
 2015 131    29    0.01    0.35    0.00     157    7.89    49.3   0.076   0.049   7.810   0.027     2.3    75.5     0.5    5280    25.5    4354    0.28    4.35   25.21    1.60     0.0     0.0     1.1     7.0    10.6     6.9     0.0     0.0     0.0   3603.    198.     71.     62.     61.     53.    137.     90.     79.     3.6     0.2     0.1     0.1     0.2     0.1     0.1     0.1     0.1     0.0     0.0     1.1     6.9    10.5     6.8     0.0     0.0     0.0     1.3     0.1     0.0     0.0     0.0     0.0     0.0     0.0     0.0
 2015 132    30    0.01    0.35    0.00     162    8.09    50.2   0.078   0.050   8.011   0.027     0.0     1.6     0.0    4854   202.4     879    1.78    0.88  200.66    0.44     0.0     0.0    69.9    65.2    48.2    19.1     0.0     0.0     0.0    524.     25.     27.     25.     36.     45.     44.     80.     71.     0.5     0.0     0.6     0.6     0.5     0.2     0.0     0.1     0.1     0.0     0.0    69.3    64.7    47.8    18.9     0.0     0.0     0.0     0.1     0.0     0.1     0.1     0.1     0.1     0.0     0.0     0.0
 2015 133    31    0.01    0.37    0.00     167    8.21    51.3   0.079   0.051   8.129   0.027     0.4    12.0     0.1    4878   119.7    1152    1.15    1.15  118.54    0.43     0.0     0.0    40.8    39.2    29.1    10.6     0.0     0.0     0.0    773.     36.     39.     36.     43.     46.     43.     72.     64.     0.8     0.0     0.4     0.4     0.3     0.2     0.0     0.1     0.1     0.0     0.0    40.4    38.8    28.8    10.5     0.0     0.0     0.0     0.1     0.0     0.1     0.1     0.1     0.0     0.0     0.0     0.0
 2015 134    32    0.01    0.39    0.00     171    8.32    52.5   0.080   0.053   8.237   0.028     0.9    27.4     0.2    4701   108.6    1212    1.06    1.21  107.50    0.46     0.0     0.0    30.2    34.0    29.2    15.1     0.0     0.0     0.0    849.     37.     42.     37.     41.     42.     40.     65.     59.     0.8     0.0     0.3     0.4     0.3     0.2     0.0     0.1     0.1     0.0     0.0    29.9    33.7    28.9    15.0     0.0     0.0     0.0     0.2     0.0     0.1     0.1     0.1     0.0     0.0     0.0     0.0
 2015 135    33    0.01    0.40    0.00     176    8.48    53.3   0.082   0.053   8.395   0.028     0.1     2.9     0.0    4546   159.1     761    1.45    0.76  157.61    0.38     0.0     0.0    61.1    45.4    33.0    19.6     0.0     0.0     0.0    443.     25.     26.     30.     39.     40.     39.     62.     57.     0.4     0.0     0.6     0.4     0.4     0.2     0.0     0.1     0.1     0.0     0.0    60.5    45.0    32.7    19.4     0.0     0.0     0.0     0.1     0.0     0.1     0.1     0.1     0.0     0.0     0.0     0.0
 2015 136    34    0.01    0.40    0.00     180    8.96    53.9   0.086   0.054   8.871   0.029     0.1     4.0     0.0    4317   480.2     609    4.14    0.61  476.06    0.71    96.8    70.0    62.8    57.6    61.8    68.1    62.9     0.0     0.0    435.     25.     25.     23.     23.     19.     19.     19.     21.     1.3     0.6     0.6     0.5     0.5     0.6     0.6     0.0     0.0    95.9    69.4    62.3    57.1    61.3    67.6    62.4     0.0     0.0     0.2     0.1     0.1     0.1     0.1     0.1     0.1     0.0     0.0
 2015 137    35    0.01    0.42    0.00     185    9.25    54.8   0.089   0.055   9.162   0.030     0.6    19.3     0.1    4664   293.9     916    2.81    0.92  291.11    0.66    57.2    37.0    37.6    36.4    40.1    44.6    41.1     0.0     0.0    632.     36.     39.     36.     35.     30.     28.     22.     58.     1.2     0.4     0.4     0.4     0.4     0.4     0.4     0.0     0.1    56.6    36.6    37.2    36.0    39.8    44.2    40.7     0.0     0.0     0.2     0.1     0.1     0.1     0.1     0.1     0.1     0.0     0.0
 2015 138    36    0.01    0.47    0.00     190    9.40    55.9   0.090   0.056   9.310   0.030     1.5    49.5     0.3    4837   149.5    1121    1.56    1.12  147.94    0.62    22.5    11.0    17.3    20.0    24.6    28.3    25.7     0.0     0.0    772.     46.     51.     47.     46.     39.     36.     26.     59.     1.0     0.2     0.2     0.2     0.3     0.3     0.3     0.0     0.1    22.2    10.9    17.1    19.8    24.3    28.1    25.5     0.0     0.0     0.3     0.0     0.1     0.0     0.1     0.1     0.1     0.0     0.0
 2015 139    37    0.02    0.55    0.00     195    9.46    58.0   0.091   0.058   9.369   0.031     2.4    78.5     0.5    4962    60.3    2033    0.64    2.03   59.62    0.84     0.0     0.0     4.0     9.3    14.1    17.4    15.4     0.0     0.0   1557.    136.     57.     54.     54.     46.     42.     28.     59.     1.6     0.1     0.1     0.2     0.2     0.2     0.2     0.0     0.1     0.0     0.0     4.0     9.2    14.0    17.2    15.3     0.0     0.0     0.6     0.0     0.0     0.0     0.0     0.0     0.0     0.0     0.0
 2015 140    38    0.02    0.55    0.00     200    9.51    59.7   0.092   0.060   9.419   0.031     0.1     3.3     0.0    4966    50.1    1763    0.54    1.76   49.53    0.43     0.0     0.0     2.7     5.1    10.1    14.3    13.9     4.1     0.0   1380.     36.     57.     55.     56.     49.     43.     29.     58.     1.4     0.0     0.1     0.1     0.2     0.2     0.2     0.1     0.1     0.0     0.0     2.6     5.0    10.0    14.2    13.7     4.0     0.0     0.2     0.0     0.0     0.0     0.0     0.0     0.0     0.0     0.0
 2015 141    39    0.02    0.57    0.00     205    9.55    62.1   0.092   0.062   9.460   0.032     0.5    15.8     0.1    5075    41.5    2340    0.45    2.34   41.07    0.57     0.0     0.0     4.4     3.2     6.6    10.9    11.6     4.8     0.0   1950.     36.     57.     54.     58.     51.     45.     30.     58.     1.9     0.0     0.1     0.1     0.1     0.2     0.2     0.1     0.1     0.0     0.0     4.4     3.2     6.6    10.8    11.4     4.7     0.0     0.4     0.0     0.0     0.0     0.0     0.0     0.0     0.0     0.0
 2015 142    40    0.02    0.62    0.00     210    9.57    65.2   0.092   0.065   9.475   0.033     1.7    50.3     0.4    5180    15.5    3068    0.17    3.07   15.33    0.90     0.0     0.0     0.0     0.0     2.1     5.4     5.7     2.3     0.0   2476.     48.    140.    146.     62.     56.     49.     33.     58.     2.5     0.0     0.1     0.1     0.1     0.1     0.1     0.1     0.1     0.0     0.0     0.0     0.0     2.0     5.3     5.7     2.3     0.0     0.7     0.0     0.0     0.0     0.0     0.0     0.0     0.0     0.0
 2015 143    41    0.02    0.62    0.00     215    9.60    66.6   0.092   0.067   9.506   0.033     0.2     4.7     0.0    5047    30.8    1488    0.33    1.49   30.51    0.33     0.0     0.0     0.0     0.0    16.0     7.9     5.1     1.8     0.0   1167.     25.     24.     26.     52.     54.     49.     34.     57.     1.2     0.0     0.0     0.0     0.2     0.1     0.1     0.1     0.1     0.0     0.0     0.0     0.0    15.8     7.8     5.1     1.8     0.0     0.2     0.0     0.0     0.0     0.0     0.0     0.0     0.0     0.0
 2015 144    42    0.02    0.65    0.00     220    9.70    68.6   0.094   0.069   9.610   0.034     0.8    23.8     0.2    5157   105.4    1941    1.10    1.94  104.34    0.62    60.2    30.4     0.0     0.0     9.0     3.9     1.9     0.1     0.0   1577.     37.     39.     36.     55.     55.     50.     35.     55.     2.2     0.3     0.0     0.0     0.2     0.1     0.1     0.0     0.1    59.6    30.1     0.0     0.0     8.9     3.8     1.9     0.1     0.0     0.4     0.1     0.0     0.0     0.0     0.0     0.0     0.0     0.0
 2015 145    43    0.02    0.70    0.00     225    9.74    70.8   0.094   0.071   9.641   0.035     2.0    57.7     0.4    5181    31.7    2215    0.37    2.21   31.30    0.75    18.6     6.9     0.0     0.0     4.1     2.1     0.0     0.0     0.0   1757.     47.     52.     44.     58.     56.     52.     94.     55.     2.0     0.1     0.1     0.0     0.1     0.1     0.1     0.1     0.1    18.3     6.8     0.0     0.0     4.1     2.1     0.0     0.0     0.0     0.6     0.0     0.0     0.0     0.0     0.0     0.0     0.0     0.0
 2015 146    44    0.02    0.78    0.01     231    9.74    74.8   0.094   0.075   9.643   0.036     2.8    77.3     0.7    5268     1.9    3986    0.02    3.99    1.91    1.42     0.0     0.0     0.0     0.0     1.7     0.2     0.0     0.0     0.0   3324.    147.     63.     52.     60.     59.    137.     90.     55.     3.3     0.1     0.1     0.1     0.1     0.1     0.1     0.1     0.1     0.0     0.0     0.0     0.0     1.7     0.2     0.0     0.0     0.0     1.2     0.0     0.0     0.0     0.0     0.0     0.0     0.0     0.0
 2015 147    45    0.02    0.79    0.01     236    9.95    75.7   0.096   0.076   9.859   0.037     0.2     4.2     0.0    5204   217.6     907    1.91    0.91  215.73    0.45     0.0     0.0    56.0    58.4    67.5    35.7     0.0     0.0     0.0    621.     26.     31.     26.     26.     42.     46.     33.     56.     0.6     0.0     0.5     0.5     0.6     0.4     0.0     0.0     0.1     0.0     0.0    55.5    57.9    66.9    35.4     0.0     0.0     0.0     0.1     0.0     0.1     0.1     0.1     0.1     0.0     0.0     0.0
 2015 148    46    0.03    0.81    0.01     241   10.08    77.0   0.097   0.077   9.987   0.037     0.9    23.9     0.2    5447   128.9    1280    1.24    1.28  127.70    0.49     0.0     0.0    28.7    34.3    43.0    23.0     0.0     0.0     0.0    867.     42.     48.     39.     39.     50.     49.     90.     56.     0.9     0.0     0.3     0.4     0.4     0.3     0.0     0.1     0.1     0.0     0.0    28.5    33.9    42.6    22.8     0.0     0.0     0.0     0.2     0.0     0.1     0.1     0.1     0.1     0.0     0.0     0.0
 2015 149    47    0.03    0.86    0.01     247   10.15    78.3   0.098   0.078  10.056   0.038     2.1    54.9     0.5    5431    70.1    1343    0.72    1.34   69.34    0.53     0.0     0.0    11.1    18.1    26.5    14.4     0.0     0.0     0.0    893.     51.     60.     47.     49.     54.     50.     84.     56.     0.9     0.1     0.2     0.2     0.3     0.2     0.0     0.1     0.1     0.0     0.0    11.0    17.9    26.2    14.3     0.0     0.0     0.0     0.3     0.0     0.0     0.0     0.1     0.0     0.0     0.0     0.0
 2015 150    48    0.03    0.94    0.01     252   10.19    80.4   0.098   0.080  10.087   0.038     2.8    73.5     0.6    5332    31.7    2083    0.34    2.08   31.34    0.79     0.0     0.0     0.4     7.5    15.3     8.5     0.0     0.0     0.0   1526.    152.     65.     52.     53.     56.     49.     77.     54.     1.5     0.2     0.1     0.1     0.2     0.1     0.0     0.1     0.1     0.0     0.0     0.4     7.4    15.1     8.4     0.0     0.0     0.0     0.6     0.0     0.0     0.0     0.0     0.0     0.0     0.0     0.0
 2015 151    49    0.03    1.01    0.01     257   10.20    82.3   0.098   0.082  10.099   0.039     2.7    71.7     0.6    5289    11.7    1874    0.13    1.87   11.58    0.66     0.0     0.0     0.0     0.0     7.3     4.4     0.0     0.0     0.0   1081.    137.    146.    145.     56.     57.    127.     72.     53.     1.1     0.1     0.1     0.1     0.1     0.1     0.1     0.1     0.1     0.0     0.0     0.0     0.0     7.3     4.3     0.0     0.0     0.0     0.4     0.0     0.0     0.0     0.0     0.0     0.0     0.0     0.0
 2015 152    50    0.04    1.08    0.01     263   10.20    83.8   0.098   0.084  10.103   0.040     2.7    70.0     0.6    5328     4.5    1537    0.05    1.54    4.43    0.52     0.0     0.0     0.0     0.0     1.6     2.8     0.0     0.0     0.0    786.    128.    135.    133.     58.     58.    116.     69.     53.     0.8     0.1     0.1     0.1     0.1     0.1     0.1     0.1     0.1     0.0     0.0     0.0     0.0     1.6     2.8     0.0     0.0     0.0     0.3     0.0     0.0     0.0     0.0     0.0     0.0     0.0     0.0
 2015 153    51    0.04    1.08    0.01     268   10.20    84.6   0.098   0.085  10.105   0.040     0.1     2.6     0.0    5233     1.5     830    0.02    0.83    1.45    0.23     0.0     0.0     0.0     0.0     0.0     1.5     0.0     0.0     0.0    132.     21.    125.    121.    148.     58.    106.     67.     53.     0.1     0.0     0.1     0.1     0.1     0.1     0.1     0.1     0.1     0.0     0.0     0.0     0.0     0.0     1.4     0.0     0.0     0.0     0.0     0.0     0.0     0.0     0.0     0.0     0.0     0.0     0.0
 2015 154    52    0.04    1.11    0.01     273   10.20    85.5   0.098   0.086  10.105   0.040     0.9    23.4     0.2    5387     0.0     879    0.00    0.88    0.00    0.24     0.0     0.0     0.0     0.0     0.0     0.0     0.0     0.0     0.0    197.     38.    118.    113.    135.     60.     99.     65.     53.     0.2     0.0     0.1     0.1     0.1     0.1     0.1     0.1     0.1     0.0     0.0     0.0     0.0     0.0     0.0     0.0     0.0     0.0     0.0     0.0     0.0     0.0     0.0     0.0     0.0     0.0     0.0
 2015 155    53    0.04    1.17    0.01     279   10.20    86.5   0.098   0.087  10.105   0.040     2.3    61.2     0.5    5421     0.0    1035    0.00    1.04    0.00    0.31     0.0     0.0     0.0     0.0     0.0     0.0     0.0     0.0     0.0    188.    137.    112.    106.    124.    156.     93.     64.     54.     0.2     0.1     0.1     0.1     0.1     0.2     0.1     0.1     0.1     0.0     0.0     0.0     0.0     0.0     0.0     0.0     0.0     0.0     0.1     0.0     0.0     0.0     0.0     0.0     0.0     0.0     0.0
 2015 156    54    0.04    1.23    0.01     284   10.20    87.6   0.098   0.088  10.105   0.041     2.5    67.3     0.6    5393     0.0    1052    0.00    1.05    0.00    0.33     0.0     0.0     0.0     0.0     0.0     0.0     0.0     0.0     0.0    273.    126.    105.     98.    112.    138.     86.     62.     53.     0.3     0.1     0.1     0.1     0.1     0.1     0.1     0.1     0.1     0.0     0.0     0.0     0.0     0.0     0.0     0.0     0.0     0.0     0.1     0.0     0.0     0.0     0.0     0.0     0.0     0.0     0.0
 2015 157    55    0.04    1.24    0.01     289   10.20    88.1   0.098   0.088  10.105   0.041     0.1     3.7     0.0    5234     0.0     536    0.00    0.54    0.00    0.14     0.0     0.0     0.0     0.0     0.0     0.0     0.0     0.0     0.0     49.     21.     25.     32.    100.    120.     78.     58.     51.     0.0     0.0     0.0     0.0     0.1     0.1     0.1     0.1     0.1     0.0     0.0     0.0     0.0     0.0     0.0     0.0     0.0     0.0     0.0     0.0     0.0     0.0     0.0     0.0     0.0     0.0     0.0
 2015 158    56    0.04    1.26    0.01     294   10.20    88.7   0.098   0.089  10.105   0.041     0.8    22.9     0.2    5234     0.0     551    0.00    0.55    0.00    0.15     0.0     0.0     0.0     0.0     0.0     0.0     0.0     0.0     0.0     65.     34.     36.     35.     92.    108.     73.     57.     51.     0.1     0.0     0.0     0.0     0.1     0.1     0.1     0.1     0.1     0.0     0.0     0.0     0.0     0.0     0.0     0.0     0.0     0.0     0.0     0.0     0.0     0.0     0.0     0.0     0.0     0.0     0.0
 2015 159    57    0.04    1.32    0.01     300   10.20    89.3   0.098   0.089  10.105   0.041     2.0    56.6     0.5    5177     0.0     604    0.00    0.60    0.00    0.18     0.0     0.0     0.0     0.0     0.0     0.0     0.0     0.0     0.0     66.     43.     44.     94.     86.     98.     69.     55.     50.     0.1     0.0     0.0     0.1     0.1     0.1     0.1     0.1     0.1     0.0     0.0     0.0     0.0     0.0     0.0     0.0     0.0     0.0     0.0     0.0     0.0     0.0     0.0     0.0     0.0     0.0     0.0
 2015 160    58    0.05    1.38    0.01     305   10.20    90.1   0.098   0.090  10.105   0.041     2.3    65.1     0.5    5179     0.0     798    0.00    0.80    0.00    0.24     0.0     0.0     0.0     0.0     0.0     0.0     0.0     0.0     0.0    132.    128.    109.     88.     81.     90.     66.     54.     50.     0.1     0.1     0.1     0.1     0.1     0.1     0.1     0.1     0.1     0.0     0.0     0.0     0.0     0.0     0.0     0.0     0.0     0.0     0.0     0.0     0.0     0.0     0.0     0.0     0.0     0.0     0.0
 2015 161    59    0.05    1.39    0.01     310   10.20    90.4   0.098   0.090  10.105   0.041     0.1     3.5     0.0    5115     0.0     312    0.00    0.31    0.00    0.08     0.0     0.0     0.0     0.0     0.0     0.0     0.0     0.0     0.0     27.     23.     21.     15.     26.     32.     64.     54.     50.     0.0     0.0     0.0     0.0     0.0     0.0     0.1     0.1     0.1     0.0     0.0     0.0     0.0     0.0     0.0     0.0     0.0     0.0     0.0     0.0     0.0     0.0     0.0     0.0     0.0     0.0     0.0
 2015 162    60    0.05    1.40    0.01     315   10.20    90.8   0.098   0.091  10.105   0.041     0.6    17.5     0.1    5201     0.0     357    0.00    0.36    0.00    0.09     0.0     0.0     0.0     0.0     0.0     0.0     0.0     0.0     0.0     40.     34.     33.     23.     29.     33.     61.     53.     50.     0.0     0.0     0.0     0.0     0.0     0.0     0.1     0.1     0.1     0.0     0.0     0.0     0.0     0.0     0.0     0.0     0.0     0.0     0.0     0.0     0.0     0.0     0.0     0.0     0.0     0.0     0.0
 2015 163    61    0.05    1.45    0.01     320   10.20    91.2   0.098   0.091  10.105   0.042     1.5    45.0     0.4    5196     0.0     456    0.00    0.46    0.00    0.13     0.0     0.0     0.0     0.0     0.0     0.0     0.0     0.0     0.0     52.     45.     44.     30.     32.     90.     60.     53.     50.     0.1     0.0     0.0     0.0     0.0     0.1     0.1     0.1     0.1     0.0     0.0     0.0     0.0     0.0     0.0     0.0     0.0     0.0     0.0     0.0     0.0     0.0     0.0     0.0     0.0     0.0     0.0
 2015 164    62    0.05    1.45    0.01     325   10.20    91.4   0.098   0.091  10.105   0.042     0.1     3.3     0.0    5026     0.0     221    0.00    0.22    0.00    0.05     0.0     0.0     0.0     0.0     0.0     0.0     0.0     0.0     0.0     25.     24.     24.     17.     14.     25.     21.     20.     50.     0.0     0.0     0.0     0.0     0.0     0.0     0.0     0.0     0.1     0.0     0.0     0.0     0.0     0.0     0.0     0.0     0.0     0.0     0.0     0.0     0.0     0.0     0.0     0.0     0.0     0.0     0.0
 2015 165    63    0.05    1.47    0.01     331   10.27    91.8   0.099   0.092  10.167   0.042     0.7    19.9     0.2    5228    63.2     329    0.60    0.33   62.57    0.18     3.8     4.7     8.6    15.9    30.2     0.0     0.0     0.0     0.0     41.     39.     39.     27.     23.     29.     24.     57.     50.     0.1     0.1     0.1     0.2     0.3     0.0     0.0     0.1     0.1     3.8     4.6     8.5    15.7    29.9     0.0     0.0     0.0     0.0     0.0     0.0     0.0     0.0     0.0     0.0     0.0     0.0     0.0
 2015 166    64    0.05    1.52    0.01     336   10.30    92.1   0.099   0.092  10.198   0.042     1.6    47.2     0.4    5227    31.4     382    0.32    0.38   31.04    0.17     1.2     0.9     3.2     8.1    18.0     0.0     0.0     0.0     0.0     51.     51.     50.     35.     29.     33.     26.     56.     51.     0.1     0.1     0.1     0.1     0.2     0.0     0.0     0.1     0.1     1.2     0.8     3.2     8.0    17.9     0.0     0.0     0.0     0.0     0.0     0.0     0.0     0.0     0.0     0.0     0.0     0.0     0.0
 2015 167    65    0.05    1.58    0.01     341   10.31    92.8   0.099   0.093  10.212   0.042     2.0    62.7     0.5    5310    13.7     619    0.14    0.62   13.52    0.21     0.0     0.0     0.1     3.2    10.3     0.0     0.0     0.0     0.0    111.    153.     60.     41.     36.     36.     73.     57.     52.     0.1     0.2     0.1     0.1     0.1     0.0     0.1     0.1     0.1     0.0     0.0     0.1     3.2    10.2     0.0     0.0     0.0     0.0     0.0     0.0     0.0     0.0     0.0     0.0     0.0     0.0     0.0
 2015 168    66    0.05    1.58    0.01     346   10.33    93.1   0.100   0.093  10.227   0.042     0.1     2.8     0.0    5282    15.4     367    0.17    0.37   15.24    0.14     0.0     0.0     0.7     1.6     7.1     6.1     0.0     0.0     0.0     21.     32.     60.     44.     39.     37.     27.     56.     52.     0.0     0.0     0.1     0.1     0.1     0.1     0.0     0.1     0.1     0.0     0.0     0.7     1.5     7.1     6.0     0.0     0.0     0.0     0.0     0.0     0.0     0.0     0.0     0.0     0.0     0.0     0.0
 2015 169    67    0.05    1.60    0.01     352   10.33    93.7   0.100   0.094  10.234   0.043     0.6    17.7     0.1    5343     7.0     531    0.08    0.53    6.95    0.17     0.0     0.0     0.0     0.5     3.7     2.9     0.0     0.0     0.0     35.     46.    142.     47.     42.     39.     74.     56.     52.     0.0     0.0     0.1     0.1     0.1     0.1     0.1     0.1     0.1     0.0     0.0     0.0     0.5     3.6     2.8     0.0     0.0     0.0     0.0     0.0     0.0     0.0     0.0     0.0     0.0     0.0     0.0
 2015 170    68    0.06    1.65    0.01     357   10.34    94.4   0.100   0.094  10.237   0.043     1.5    48.6     0.4    5334     2.5     715    0.03    0.71    2.43    0.22     0.0     0.0     0.0     0.0     1.1     1.3     0.0     0.0     0.0     46.    152.    131.    124.     44.     40.     70.     55.     52.     0.0     0.2     0.1     0.1     0.1     0.1     0.1     0.1     0.1     0.0     0.0     0.0     0.0     1.1     1.3     0.0     0.0     0.0     0.0     0.0     0.0     0.0     0.0     0.0     0.0     0.0     0.0
 2015 171    69    0.06    1.71    0.01     362   10.34    95.2   0.100   0.095  10.237   0.043     1.9    62.5     0.4    5287     0.0     856    0.00    0.86    0.00    0.26     0.0     0.0     0.0     0.0     0.0     0.0     0.0     0.0     0.0     96.    138.    119.    111.    116.    105.     66.     54.     51.     0.1     0.1     0.1     0.1     0.1     0.1     0.1     0.1     0.1     0.0     0.0     0.0     0.0     0.0     0.0     0.0     0.0     0.0     0.0     0.0     0.0     0.0     0.0     0.0     0.0     0.0     0.0
 2015 172    70    0.06    1.77    0.01     368   10.34    96.0   0.100   0.096  10.237   0.043     1.9    61.8     0.4    5157     0.0     766    0.00    0.77    0.00    0.23     0.0     0.0     0.0     0.0     0.0     0.0     0.0     0.0     0.0     82.    122.    106.     99.    102.     93.     62.     51.     49.     0.1     0.1     0.1     0.1     0.1     0.1     0.1     0.1     0.0     0.0     0.0     0.0     0.0     0.0     0.0     0.0     0.0     0.0     0.0     0.0     0.0     0.0     0.0     0.0     0.0     0.0     0.0
 2015 173    71    0.06    1.78    0.01     372   10.34    96.6   0.100   0.097  10.237   0.043     0.1     3.2     0.0    4953     0.0     634    0.00    0.63    0.00    0.18     0.0     0.0     0.0     0.0     0.0     0.0     0.0     0.0     0.0     16.    108.     96.     88.     90.     83.     57.     49.     47.     0.0     0.1     0.1     0.1     0.1     0.1     0.1     0.0     0.0     0.0     0.0     0.0     0.0     0.0     0.0     0.0     0.0     0.0     0.0     0.0     0.0     0.0     0.0     0.0     0.0     0.0     0.0
 2015 174    72    0.06    1.80    0.01     377   10.34    97.2   0.100   0.097  10.237   0.044     0.7    24.6     0.2    4882     0.0     599    0.00    0.60    0.00    0.17     0.0     0.0     0.0     0.0     0.0     0.0     0.0     0.0     0.0     26.     99.     88.     80.     82.     75.     54.     47.     46.     0.0     0.1     0.1     0.1     0.1     0.1     0.1     0.0     0.0     0.0     0.0     0.0     0.0     0.0     0.0     0.0     0.0     0.0     0.0     0.0     0.0     0.0     0.0     0.0     0.0     0.0     0.0
 2015 175    73    0.06    1.87    0.01     382   10.34    97.8   0.100   0.098  10.237   0.044     1.8    63.2     0.4    4783     0.0     569    0.00    0.57    0.00    0.17     0.0     0.0     0.0     0.0     0.0     0.0     0.0     0.0     0.0     33.     92.     82.     74.     75.     69.     52.     46.     45.     0.0     0.1     0.1     0.1     0.1     0.1     0.1     0.0     0.0     0.0     0.0     0.0     0.0     0.0     0.0     0.0     0.0     0.0     0.0     0.0     0.0     0.0     0.0     0.0     0.0     0.0     0.0
 2015 176    74    0.06    1.93    0.01     387   10.34    98.4   0.100   0.098  10.237   0.044     1.8    63.5     0.4    4716     0.0     572    0.00    0.57    0.00    0.17     0.0     0.0     0.0     0.0     0.0     0.0     0.0     0.0     0.0     64.     86.     78.     69.     70.     65.     50.     45.     45.     0.1     0.1     0.1     0.1     0.1     0.1     0.1     0.0     0.0     0.0     0.0     0.0     0.0     0.0     0.0     0.0     0.0     0.0     0.0     0.0     0.0     0.0     0.0     0.0     0.0     0.0     0.0
 2015 177    75    0.07    1.99    0.01     392   10.34    98.9   0.100   0.099  10.237   0.044     1.7    62.8     0.4    4761     0.0     559    0.00    0.56    0.00    0.17     0.0     0.0     0.0     0.0     0.0     0.0     0.0     0.0     0.0     59.     84.     76.     67.     68.     63.     50.     46.     45.     0.1     0.1     0.1     0.1     0.1     0.1     0.1     0.0     0.0     0.0     0.0     0.0     0.0     0.0     0.0     0.0     0.0     0.0     0.0     0.0     0.0     0.0     0.0     0.0     0.0     0.0     0.0
 2015 178    76    0.07    2.00    0.01     396   10.34    99.4   0.100   0.099  10.237   0.044     0.1     3.7     0.0    4739     0.0     502    0.00    0.50    0.00    0.14     0.0     0.0     0.0     0.0     0.0     0.0     0.0     0.0     0.0     13.     82.     74.     65.     66.     61.     50.     46.     45.     0.0     0.1     0.1     0.1     0.1     0.1     0.0     0.0     0.0     0.0     0.0     0.0     0.0     0.0     0.0     0.0     0.0     0.0     0.0     0.0     0.0     0.0     0.0     0.0     0.0     0.0     0.0
 2015 179    77    0.07    2.02    0.02     401   10.34    99.9   0.100   0.100  10.237   0.044     0.7    26.9     0.2    4719     0.0     493    0.00    0.49    0.00    0.14     0.0     0.0     0.0     0.0     0.0     0.0     0.0     0.0     0.0     21.     78.     71.     62.     63.     58.     49.     46.     45.     0.0     0.1     0.1     0.1     0.1     0.1     0.0     0.0     0.0     0.0     0.0     0.0     0.0     0.0     0.0     0.0     0.0     0.0     0.0     0.0     0.0     0.0     0.0     0.0     0.0     0.0     0.0
 2015 180    78    0.07    2.09    0.02     406   10.34   100.4   0.100   0.100  10.237   0.045     1.7    65.2     0.4    4655     0.0     482    0.00    0.48    0.00    0.14     0.0     0.0     0.0     0.0     0.0     0.0     0.0     0.0     0.0     27.     75.     69.     60.     60.     56.     48.     45.     44.     0.0     0.1     0.1     0.1     0.1     0.1     0.0     0.0     0.0     0.0     0.0     0.0     0.0     0.0     0.0     0.0     0.0     0.0     0.0     0.0     0.0     0.0     0.0     0.0     0.0     0.0     0.0
 2015 181    79    0.07    2.15    0.02     410   10.34   100.9   0.100   0.101  10.237   0.045     1.6    64.5     0.4    4676     0.0     503    0.00    0.50    0.00    0.15     0.0     0.0     0.0     0.0     0.0     0.0     0.0     0.0     0.0     53.     74.     68.     58.     58.     54.     47.     45.     45.     0.1     0.1     0.1     0.1     0.1     0.1     0.0     0.0     0.0     0.0     0.0     0.0     0.0     0.0     0.0     0.0     0.0     0.0     0.0     0.0     0.0     0.0     0.0     0.0     0.0     0.0     0.0
 2015 182    80    0.07    2.22    0.02     415   10.34   101.4   0.100   0.101  10.237   0.045     1.6    63.9     0.4    4673     0.0     496    0.00    0.50    0.00    0.15     0.0     0.0     0.0     0.0     0.0     0.0     0.0     0.0     0.0     54.     72.     67.     57.     57.     53.     47.     45.     45.     0.1     0.1     0.1     0.1     0.1     0.1     0.0     0.0     0.0     0.0     0.0     0.0     0.0     0.0     0.0     0.0     0.0     0.0     0.0     0.0     0.0     0.0     0.0     0.0     0.0     0.0     0.0
 2015 183    81    0.07    2.28    0.02     420   10.34   101.9   0.100   0.102  10.237   0.045     1.6    63.3     0.4    4774     0.0     505    0.00    0.51    0.00    0.15     0.0     0.0     0.0     0.0     0.0     0.0     0.0     0.0     0.0     56.     73.     68.     58.     57.     54.     48.     46.     46.     0.1     0.1     0.1     0.1     0.1     0.1     0.0     0.0     0.0     0.0     0.0     0.0     0.0     0.0     0.0     0.0     0.0     0.0     0.0     0.0     0.0     0.0     0.0     0.0     0.0     0.0     0.0
 2015 184    82    0.07    2.34    0.02     425   10.34   102.4   0.100   0.102  10.237   0.045     1.5    62.9     0.3    4858     0.0     519    0.00    0.52    0.00    0.16     0.0     0.0     0.0     0.0     0.0     0.0     0.0     0.0     0.0     59.     75.     69.     59.     58.     55.     50.     48.     48.     0.1     0.1     0.1     0.1     0.1     0.1     0.0     0.0     0.0     0.0     0.0     0.0     0.0     0.0     0.0     0.0     0.0     0.0     0.0     0.0     0.0     0.0     0.0     0.0     0.0     0.0     0.0
 2015 185    83    0.08    2.41    0.02     430   10.34   103.0   0.100   0.103  10.237   0.045     1.5    62.5     0.3    4886     0.0     531    0.00    0.53    0.00    0.16     0.0     0.0     0.0     0.0     0.0     0.0     0.0     0.0     0.0     61.     76.     71.     60.     59.     55.     51.     49.     49.     0.1     0.1     0.1     0.1     0.1     0.1     0.1     0.0     0.0     0.0     0.0     0.0     0.0     0.0     0.0     0.0     0.0     0.0     0.0     0.0     0.0     0.0     0.0     0.0     0.0     0.0     0.0
 2015 186    84    0.08    2.47    0.02     435   10.34   103.5   0.100   0.104  10.237   0.045     1.5    62.2     0.3    4896     0.0     538    0.00    0.54    0.00    0.16     0.0     0.0     0.0     0.0     0.0     0.0     0.0     0.0     0.0     62.     76.     72.     60.     60.     56.     52.     51.     50.     0.1     0.1     0.1     0.1     0.1     0.1     0.1     0.1     0.1     0.0     0.0     0.0     0.0     0.0     0.0     0.0     0.0     0.0     0.0     0.0     0.0     0.0     0.0     0.0     0.0     0.0     0.0
 2015 187    85    0.08    2.53    0.02     439   10.34   104.0   0.100   0.104  10.237   0.046     1.4    62.0     0.3    4871     0.0     539    0.00    0.54    0.00    0.16     0.0     0.0     0.0     0.0     0.0     0.0     0.0     0.0     0.0     62.     75.     71.     60.     60.     56.     52.     51.     51.     0.1     0.1     0.1     0.1     0.1     0.1     0.1     0.1     0.1     0.0     0.0     0.0     0.0     0.0     0.0     0.0     0.0     0.0     0.0     0.0     0.0     0.0     0.0     0.0     0.0     0.0     0.0
 2015 188    86    0.08    2.59    0.02     444   10.34   104.6   0.100   0.105  10.237   0.046     1.4    61.9     0.3    4764     0.0     525    0.00    0.53    0.00    0.16     0.0     0.0     0.0     0.0     0.0     0.0     0.0     0.0     0.0     60.     72.     69.     58.     58.     54.     52.     51.     50.     0.1     0.1     0.1     0.1     0.1     0.1     0.1     0.1     0.1     0.0     0.0     0.0     0.0     0.0     0.0     0.0     0.0     0.0     0.0     0.0     0.0     0.0     0.0     0.0     0.0     0.0     0.0
 2015 189    87    0.08    2.65    0.02     449   10.34   105.1   0.100   0.105  10.237   0.046     1.4    61.8     0.3    4536     0.0     491    0.00    0.49    0.00    0.56     0.0     0.0     0.0     0.0     0.0     0.0     0.0     0.0     0.0     56.     66.     64.     54.     55.     51.     49.     48.     48.     0.1     0.1     0.1     0.1     0.1     0.1     0.0     0.0     0.0     0.0     0.0     0.0     0.0     0.0     0.0     0.0     0.0     0.0     0.1     0.1     0.1     0.1     0.1     0.1     0.1     0.1     0.1
 2015 190    88    0.08    2.71    0.02     453   10.34   105.5   0.100   0.105  10.237   0.047     1.3    60.3     0.3    4261     0.0     438    0.00    0.44    0.00    0.40     0.0     0.0     0.0     0.0     0.0     0.0     0.0     0.0     0.0     49.     58.     56.     48.     49.     46.     44.     44.     44.     0.0     0.1     0.1     0.0     0.0     0.0     0.0     0.0     0.0     0.0     0.0     0.0     0.0     0.0     0.0     0.0     0.0     0.0     0.1     0.0     0.1     0.0     0.0     0.0     0.0     0.0     0.0
 2015 191    89    0.08    2.77    0.02     457   10.34   105.9   0.100   0.106  10.237   0.047     1.3    60.3     0.3    4030     0.0     414    0.00    0.41    0.00    0.31     0.0     0.0     0.0     0.0     0.0     0.0     0.0     0.0     0.0     46.     54.     53.     46.     46.     43.     42.     42.     42.     0.0     0.1     0.1     0.0     0.0     0.0     0.0     0.0     0.0     0.0     0.0     0.0     0.0     0.0     0.0     0.0     0.0     0.0     0.0     0.0     0.0     0.0     0.0     0.0     0.0     0.0     0.0
 2015 192    90    0.09    2.83    0.02     461   10.34   106.3   0.100   0.106  10.237   0.047     1.3    60.4     0.3    3979     0.0     413    0.00    0.41    0.00    0.25     0.0     0.0     0.0     0.0     0.0     0.0     0.0     0.0     0.0     46.     53.     52.     45.     47.     43.     42.     42.     42.     0.0     0.1     0.1     0.0     0.0     0.0     0.0     0.0     0.0     0.0     0.0     0.0     0.0     0.0     0.0     0.0     0.0     0.0     0.0     0.0     0.0     0.0     0.0     0.0     0.0     0.0     0.0
 2015 193    91    0.09    2.89    0.02     465   10.34   106.7   0.100   0.107  10.237   0.048     1.3    60.4     0.3    4002     0.0     422    0.00    0.42    0.00    0.21     0.0     0.0     0.0     0.0     0.0     0.0     0.0     0.0     0.0     47.     54.     53.     46.     48.     44.     43.     43.     43.     0.0     0.1     0.1     0.0     0.0     0.0     0.0     0.0     0.0     0.0     0.0     0.0     0.0     0.0     0.0     0.0     0.0     0.0     0.0     0.0     0.0     0.0     0.0     0.0     0.0     0.0     0.0

*DSSAT Cropping System Model Ver. 4.7.5.007 -  MAR 01, 2026 21:19:28
!              |---------------------------------- Cumulative ---------------------------------|---------------------------------- Daily --------------------------------------|
!               N2Oemit  N2emit  NOemit     CO2   Denit  Nitrif   N2O-denit+nit      N2      NO N2Oemit  N2emit  NOemit     CO2   Denit  Nitrif   N2O-denit+nit      N2      NO   Denitrification (g[N]/ha) by soil depth (cm):                           Nitrification (g[N]/ha) by soil depth (cm):                             N2O flux (g[N]/ha) by soil depth (cm):                                  N2 flux (g[N]/ha) by soil depth (cm):                                   NO flux (g[N]/ha) by soil depth (cm):
!                 kg/ha   kg/ha   kg/ha   kg/ha   kg/ha   kg/ha   kg/ha   kg/ha   kg/ha   kg/ha    g/ha    g/ha    g/ha    g/ha    g/ha    g/ha    g/ha    g/ha    g/ha    g/ha    0-10   10-20   20-30   30-40   40-50   50-60   60-70   70-80   80-90    0-10   10-20   20-30   30-40   40-50   50-60   60-70   70-80   80-90    0-10   10-20   20-30   30-40   40-50   50-60   60-70   70-80   80-90    0-10   10-20   20-30   30-40   40-50   50-60   60-70   70-80   80-90    0-10   10-20   20-30   30-40   40-50   50-60   60-70   70-80   80-90
@YEAR DOY   DAS   N2OEC    N2EC    NOEC   CO2TC    NDNC    NITC   N2ODC   N2ONC   N2FLC   NOFLC   N2OED    N2ED    NOED   CO2TD    NDND   NITRD   N2ODD   N2OND   N2FLD   NOFLD   NDN1D   NDN2D   NDN3D   NDN4D   NDN5D   NDN6D   NDN7D   NDN8D   NDN9D   NIT1D   NIT2D   NIT3D   NIT4D   NIT5D   NIT6D   NIT7D   NIT8D   NIT9D   N2O1D   N2O2D   N2O3D   N2O4D   N2O5D   N2O6D   N2O7D   N2O8D   N2O9D   N2F1D   N2F2D   N2F3D   N2F4D   N2F5D   N2F6D   N2F7D   N2F8D   N2F9D   NOF1D   NOF2D   NOF3D   NOF4D   NOF5D   NOF6D   NOF7D   NOF8D   NOF9D   
 2015 126     1    0.00    0.00    0.00       6    0.00     1.8   0.000   0.002   0.000   0.002     0.0     0.0     0.0    5885     0.0    1774    0.00    1.77    0.00    2.00     0.0     0.0     0.0     0.0     0.0     0.0     0.0     0.0     0.0    195.    207.    202.    198.    197.    195.    194.    193.    192.     0.2     0.2     0.2     0.2     0.2     0.2     0.2     0.2     0.2     0.0     0.0     0.0     0.0     0.0     0.0     0.0     0.0     0.0     0.3     0.2     0.2     0.2     0.2     0.2     0.2     0.2     0.2
 2015 127     2    0.00    0.00    0.00      11    0.00     2.4   0.000   0.003   0.000   0.003     0.0     0.0     0.0    5230     0.0     578    0.00    0.58    0.00    0.36     0.0     0.0     0.0     0.0     0.0     0.0     0.0     0.0     0.0    169.     27.     30.     27.     27.     27.     50.     60.    161.     0.2     0.0     0.0     0.0     0.0     0.0     0.1     0.1     0.2     0.0     0.0     0.0     0.0     0.0     0.0     0.0     0.0     0.0     0.1     0.0     0.0     0.0     0.0     0.0     0.0     0.0     0.1
 2015 128     3    0.00    0.00    0.00      17    0.00     3.4   0.000   0.004   0.000   0.003     0.0     0.0     0.0    5425     0.0    1092    0.00    1.09    0.00    0.45     0.0     0.0     0.0     0.0     0.0     0.0     0.0     0.0     0.0    788.     31.     34.     29.     29.     29.     44.     55.     53.     0.8     0.0     0.0     0.0     0.0     0.0     0.0     0.1     0.1     0.0     0.0     0.0     0.0     0.0     0.0     0.0     0.0     0.0     0.3     0.0     0.0     0.0     0.0     0.0     0.0     0.0     0.0
 2015 129     4    0.00    0.00    0.00      22    0.00     5.0   0.000   0.005   0.000   0.004     0.0     0.0     0.0    5542     0.0    1576    0.00    1.58    0.00    0.64     0.0     0.0     0.0     0.0     0.0     0.0     0.0     0.0     0.0   1103.     49.     49.     42.     43.     42.     52.     58.    137.     1.1     0.0     0.0     0.0     0.0     0.0     0.1     0.1     0.1     0.0     0.0     0.0     0.0     0.0     0.0     0.0     0.0     0.0     0.4     0.0     0.0     0.0     0.0     0.0     0.0     0.0     0.1
 2015 130     5    0.00    0.00    0.00      27    0.00     6.8   0.000   0.007   0.000   0.004     0.1     0.0     0.0    5395     0.0    1802    0.00    1.80    0.00    0.72     0.0     0.0     0.0     0.0     0.0     0.0     0.0     0.0     0.0   1211.     61.     59.     50.     50.     50.     55.    147.    119.     1.2     0.1     0.1     0.1     0.1     0.1     0.1     0.1     0.1     0.0     0.0     0.0     0.0     0.0     0.0     0.0     0.0     0.0     0.5     0.0     0.0     0.0     0.0     0.0     0.0     0.1     0.1
 2015 131     6    0.00    0.00    0.00      33    0.44     7.8   0.006   0.008   0.431   0.005     0.0     0.1     0.0    5059   436.5     956    5.59    0.96  430.89    1.09    83.8    66.8    74.6    72.6    73.6    50.3    14.8     0.0     0.0    518.     33.     30.     27.     26.     36.     50.    129.    106.     1.6     0.8     1.0     0.9     0.9     0.7     0.3     0.1     0.1    82.8    66.0    73.7    71.7    72.7    49.6    14.5     0.0     0.0     0.3     0.1     0.1     0.1     0.1     0.1     0.1     0.0     0.0
 2015 132     7    0.00    0.00    0.00      37    0.93     8.4   0.010   0.009   0.915   0.006     0.0     0.2     0.0    4645   489.0     659    4.87    0.66  484.10    0.82    63.6    59.4    69.1    71.2    74.6    75.4    75.7     0.0     0.0    478.     30.     28.     23.     23.     23.     22.     17.     14.     1.1     0.6     0.7     0.7     0.8     0.8     0.8     0.0     0.0    62.9    58.8    68.4    70.5    73.8    74.7    74.9     0.0     0.0     0.2     0.1     0.1     0.1     0.1     0.1     0.1     0.0     0.0
 2015 133     8    0.00    0.00    0.00      42    1.22     9.4   0.013   0.010   1.206   0.007     0.1     1.5     0.0    4894   293.5     938    2.74    0.94  290.77    0.61    41.6    34.5    40.9    42.0    44.2    45.0    45.3     0.0     0.0    672.     43.     41.     34.     34.     34.     32.     26.     22.     1.1     0.4     0.4     0.4     0.4     0.4     0.4     0.0     0.0    41.2    34.2    40.5    41.6    43.8    44.6    44.8     0.0     0.0     0.2     0.1     0.1     0.1     0.1     0.1     0.1     0.0     0.0
 2015 134     9    0.00    0.01    0.00      47    1.46    10.4   0.016   0.011   1.448   0.008     0.1     3.5     0.0    4718   244.9    1016    2.36    1.02  242.51    0.61    30.7    29.9    32.3    36.5    38.0    38.6    38.8     0.0     0.0    739.     44.     44.     35.     35.     35.     33.     27.     23.     1.1     0.3     0.4     0.4     0.4     0.4     0.4     0.0     0.0    30.3    29.6    32.0    36.2    37.7    38.2    38.5     0.0     0.0     0.2     0.1     0.1     0.1     0.1     0.1     0.1     0.0     0.0
 2015 135    10    0.00    0.01    0.00      51    1.60    11.6   0.017   0.012   1.580   0.008     0.3     6.7     0.1    4697   133.1    1163    1.39    1.16  131.66    0.58    18.9    15.1    17.5    19.6    20.4    20.7    20.9     0.0     0.0    821.     54.     53.     44.     44.     43.     41.     34.     29.     1.0     0.2     0.2     0.2     0.3     0.3     0.3     0.0     0.0    18.6    14.9    17.3    19.4    20.2    20.5    20.7     0.0     0.0     0.3     0.0     0.1     0.0     0.1     0.1     0.1     0.0     0.0
 2015 136    11    0.00    0.01    0.00      56    1.99    12.1   0.021   0.013   1.974   0.009     0.0     0.4     0.0    4358   397.9     572    3.57    0.57  394.36    0.66    65.1    49.5    56.4    59.0    63.0    44.8    24.2    18.7    17.2    338.     28.     26.     23.     23.     31.     39.     34.     30.     0.9     0.4     0.5     0.5     0.6     0.4     0.3     0.2     0.3    64.5    49.1    55.9    58.5    62.5    44.4    23.9    18.5    17.0     0.1     0.1     0.1     0.1     0.1     0.1     0.1     0.0     0.1
 2015 137    12    0.00    0.02    0.00      61    2.24    13.0   0.023   0.013   2.214   0.009     0.1     2.8     0.0    4693   242.1     852    2.35    0.85  239.72    0.58    45.3    30.1    35.0    36.3    38.8    26.8    12.9     9.0     7.9    536.     43.     41.     36.     35.     41.     45.     39.     35.     1.0     0.3     0.4     0.4     0.4     0.3     0.2     0.1     0.1    44.9    29.8    34.7    35.9    38.4    26.5    12.8     8.9     7.8     0.2     0.1     0.1     0.1     0.1     0.1     0.0     0.0     0.0
 2015 138    13    0.00    0.02    0.00      65    2.36    14.1   0.024   0.014   2.337   0.010     0.2     7.4     0.1    4874   124.5    1091    1.31    1.09  123.21    0.52    29.2    15.2    19.8    20.3    21.7    13.4     3.8     1.0     0.1    699.     57.     55.     47.     47.     50.     52.     45.     40.     1.0     0.2     0.3     0.3     0.3     0.2     0.1     0.1     0.0    28.9    15.1    19.6    20.1    21.5    13.3     3.8     1.0     0.1     0.2     0.0     0.1     0.1     0.1     0.0     0.0     0.0     0.0
 2015 139    14    0.00    0.04    0.00      70    2.41    15.5   0.025   0.016   2.390   0.010     0.4    13.0     0.1    5003    53.3    1466    0.60    1.47   52.66    0.56    16.0     4.9     9.3     9.2     9.8     4.0     0.0     0.0     0.0    796.     67.     65.     55.     55.     57.    143.    121.    107.     1.0     0.1     0.2     0.2     0.2     0.1     0.1     0.1     0.1    15.8     4.8     9.2     9.1     9.7     4.0     0.0     0.0     0.0     0.3     0.0     0.0     0.0     0.0     0.0     0.0     0.0     0.0
 2015 140    15    0.00    0.04    0.00      75    2.59    17.6   0.026   0.018   2.565   0.011     0.0     0.7     0.0    4946   176.8    2041    1.60    2.04  175.23    0.65    89.6    56.0    15.8     8.6     5.9     0.9     0.0     0.0     0.0   1430.     33.     61.     56.     58.     59.    132.    112.    100.     2.2     0.5     0.2     0.1     0.1     0.1     0.1     0.1     0.1    88.9    55.5    15.6     8.5     5.9     0.9     0.0     0.0     0.0     0.3     0.1     0.1     0.0     0.0     0.0     0.0     0.0     0.0
 2015 141    16    0.00    0.04    0.00      80    2.75    20.3   0.028   0.021   2.725   0.012     0.1     3.2     0.0    5093   161.5    2693    1.54    2.69  159.95    0.78    77.0    51.8    19.7     9.5     3.4     0.0     0.0     0.0     0.0   2008.     38.     58.     56.     59.    154.    121.    105.     94.     2.8     0.5     0.3     0.2     0.1     0.2     0.1     0.1     0.1    76.3    51.3    19.5     9.4     3.4     0.0     0.0     0.0     0.0     0.4     0.1     0.1     0.0     0.0     0.0     0.0     0.0     0.0
 2015 142    17    0.00    0.05    0.00      86    2.84    23.8   0.029   0.024   2.814   0.013     0.4    10.7     0.1    5230    90.0    3491    0.96    3.49   89.07    0.99    52.9    27.0     8.6     1.5     0.0     0.0     0.0     0.0     0.0   2695.     58.     68.     62.    162.    143.    114.     99.     90.     3.3     0.3     0.2     0.1     0.2     0.1     0.1     0.1     0.1    52.3    26.8     8.5     1.5     0.0     0.0     0.0     0.0     0.0     0.7     0.1     0.0     0.0     0.0     0.0     0.0     0.0     0.0
 2015 143    18    0.00    0.05    0.00      91    3.15    25.6   0.032   0.026   3.120   0.014     0.0     1.1     0.0    5002   308.6    1799    2.66    1.80  305.95    0.71   119.1    62.0    62.7    64.8     0.0     0.0     0.0     0.0     0.0   1351.     36.     31.     28.     28.     46.    104.     91.     84.     2.4     0.6     0.6     0.6     0.0     0.0     0.1     0.1     0.1   118.1    61.5    62.1    64.2     0.0     0.0     0.0     0.0     0.0     0.4     0.1     0.1     0.1     0.0     0.0     0.0     0.0     0.0
 2015 144    19    0.00    0.06    0.00      96    3.34    28.1   0.033   0.029   3.308   0.014     0.2     7.5     0.1    5203   190.1    2532    1.86    2.53  188.24    0.80    81.0    34.4    36.8    37.9     0.0     0.0     0.0     0.0     0.0   2040.     55.     48.     41.     40.     49.     95.     85.     78.     2.9     0.4     0.4     0.4     0.0     0.0     0.1     0.1     0.1    80.2    34.1    36.5    37.5     0.0     0.0     0.0     0.0     0.0     0.5     0.1     0.1     0.1     0.0     0.0     0.0     0.0     0.0
 2015 145    20    0.00    0.08    0.00     101    3.44    31.2   0.034   0.032   3.407   0.015     0.7    20.2     0.1    5239   100.1    3120    1.10    3.12   99.03    0.99    47.6    13.9    18.6    20.1     0.0     0.0     0.0     0.0     0.0   2514.     69.     62.     52.     49.    130.     89.     80.     75.     3.1     0.2     0.3     0.3     0.0     0.1     0.1     0.1     0.1    47.0    13.7    18.4    19.9     0.0     0.0     0.0     0.0     0.0     0.7     0.0     0.1     0.1     0.0     0.0     0.0     0.0     0.0
 2015 146    21    0.00    0.11    0.00     106    3.47    34.6   0.035   0.035   3.439   0.016     1.3    35.2     0.3    5344    32.0    3439    0.39    3.44   31.63    1.18    16.5     0.4     6.7     8.4     0.0     0.0     0.0     0.0     0.0   2814.     79.     72.     61.     56.    121.     86.     78.     73.     3.0     0.1     0.1     0.2     0.1     0.1     0.1     0.1     0.1    16.3     0.4     6.6     8.3     0.0     0.0     0.0     0.0     0.0     1.0     0.0     0.0     0.0     0.0     0.0     0.0     0.0     0.0
 2015 147    22    0.01    0.16    0.00     112    3.47    41.2   0.035   0.042   3.439   0.019     1.8    42.0     0.4    5433     0.1    6574    0.00    6.57    0.15    2.35     0.0     0.0     0.0     0.1     0.0     0.0     0.0     0.0     0.0   5605.    227.    177.     67.    157.    113.     82.     75.     71.     5.6     0.2     0.2     0.1     0.2     0.1     0.1     0.1     0.1     0.0     0.0     0.0     0.1     0.0     0.0     0.0     0.0     0.0     2.1     0.1     0.1     0.0     0.0     0.0     0.0     0.0     0.0
 2015 148    23    0.01    0.16    0.00     117    3.48    42.8   0.035   0.043   3.445   0.019     0.1     1.4     0.0    5405     5.6    1597    0.06    1.60    5.55    0.33     0.0     0.0     0.0     5.6     0.0     0.0     0.0     0.0     0.0    975.     34.     53.     64.    144.    106.     79.     73.     69.     1.0     0.0     0.1     0.1     0.1     0.1     0.1     0.1     0.1     0.0     0.0     0.0     5.5     0.0     0.0     0.0     0.0     0.0     0.1     0.0     0.0     0.0     0.0     0.0     0.0     0.0     0.0
 2015 149    24    0.01    0.17    0.00     123    3.48    45.0   0.035   0.045   3.445   0.020     0.4     8.4     0.1    5519     0.0    2197    0.00    2.20    0.00    0.47     0.0     0.0     0.0     0.0     0.0     0.0     0.0     0.0     0.0   1478.     52.     62.    170.    129.     97.     75.     70.     66.     1.5     0.1     0.1     0.2     0.1     0.1     0.1     0.1     0.1     0.0     0.0     0.0     0.0     0.0     0.0     0.0     0.0     0.0     0.3     0.0     0.0     0.0     0.0     0.0     0.0     0.0     0.0
 2015 150    25    0.01    0.17    0.00     128    3.48    46.4   0.035   0.047   3.445   0.020     0.1     1.5     0.0    5311     0.0    1387    0.00    1.39    0.00    0.27     0.0     0.0     0.0     0.0     0.0     0.0     0.0     0.0     0.0    864.     34.     40.     51.    113.     87.     69.     65.     62.     0.9     0.0     0.0     0.1     0.1     0.1     0.1     0.1     0.1     0.0     0.0     0.0     0.0     0.0     0.0     0.0     0.0     0.0     0.1     0.0     0.0     0.0     0.0     0.0     0.0     0.0     0.0
 2015 151    26    0.01    0.18    0.00     134    3.48    48.2   0.035   0.049   3.445   0.020     0.5     9.6     0.1    5380     0.0    1842    0.00    1.84    0.00    0.39     0.0     0.0     0.0     0.0     0.0     0.0     0.0     0.0     0.0   1312.     52.     52.     55.    102.     81.     66.     62.     60.     1.3     0.1     0.1     0.1     0.1     0.1     0.1     0.1     0.1     0.0     0.0     0.0     0.0     0.0     0.0     0.0     0.0     0.0     0.2     0.0     0.0     0.0     0.0     0.0     0.0     0.0     0.0
 2015 152    27    0.01    0.20    0.00     139    3.56    50.5   0.036   0.051   3.524   0.021     1.2    25.4     0.3    5421    80.7    2216    0.95    2.22   79.78    0.83    58.4    13.0     9.3     0.0     0.0     0.0     0.0     0.0     0.0   1588.     64.     62.    146.     95.     77.     64.     61.     59.     2.3     0.2     0.2     0.1     0.1     0.1     0.1     0.1     0.1    57.7    12.8     9.2     0.0     0.0     0.0     0.0     0.0     0.0     0.6     0.0     0.0     0.0     0.0     0.0     0.0     0.0     0.0
 2015 153    28    0.01    0.20    0.00     144    3.88    51.8   0.039   0.052   3.836   0.022     0.1     2.3     0.0    5350   314.8    1304    2.85    1.30  311.90    0.72   240.3    63.1    11.4     0.0     0.0     0.0     0.0     0.0     0.0    729.     45.     59.    131.     88.     73.     62.     59.     58.     2.9     0.6     0.2     0.1     0.1     0.1     0.1     0.1     0.1   238.2    62.5    11.2     0.0     0.0     0.0     0.0     0.0     0.0     0.4     0.1     0.0     0.0     0.0     0.0     0.0     0.0     0.0
 2015 154    29    0.01    0.22    0.00     150    4.03    53.5   0.040   0.054   3.993   0.023     0.6    16.2     0.1    5482   157.8    1717    1.66    1.72  156.15    0.71   133.1    23.4     1.3     0.0     0.0     0.0     0.0     0.0     0.0   1137.     59.     66.    121.     84.     71.     62.     59.     58.     2.5     0.3     0.1     0.1     0.1     0.1     0.1     0.1     0.1   131.7    23.2     1.3     0.0     0.0     0.0     0.0     0.0     0.0     0.5     0.1     0.0     0.0     0.0     0.0     0.0     0.0     0.0
 2015 155    30    0.01    0.26    0.00     155    4.09    55.5   0.041   0.056   4.047   0.023     1.5    40.8     0.3    5546    55.0    2020    0.67    2.02   54.31    0.74    54.0     1.0     0.0     0.0     0.0     0.0     0.0     0.0     0.0   1360.     67.    154.    112.     80.     69.     61.     59.     58.     2.0     0.1     0.2     0.1     0.1     0.1     0.1     0.1     0.1    53.3     1.0     0.0     0.0     0.0     0.0     0.0     0.0     0.0     0.5     0.0     0.0     0.0     0.0     0.0     0.0     0.0     0.0
 2015 156    31    0.01    0.33    0.00     161    4.09    59.0   0.041   0.059   4.047   0.025     2.4    63.3     0.6    5509     0.0    3479    0.00    3.48    0.00    1.22     0.0     0.0     0.0     0.0     0.0     0.0     0.0     0.0     0.0   2744.    183.    137.    101.     75.     66.     59.     57.     56.     2.7     0.2     0.1     0.1     0.1     0.1     0.1     0.1     0.1     0.0     0.0     0.0     0.0     0.0     0.0     0.0     0.0     0.0     1.0     0.0     0.0     0.0     0.0     0.0     0.0     0.0     0.0
 2015 157    32    0.01    0.33    0.00     166    4.09    59.9   0.041   0.060   4.047   0.025     0.1     2.5     0.0    5294     0.0     922    0.00    0.92    0.00    0.20     0.0     0.0     0.0     0.0     0.0     0.0     0.0     0.0     0.0    463.     27.     46.     90.     69.     61.     56.     55.     54.     0.5     0.0     0.0     0.1     0.1     0.1     0.1     0.1     0.1     0.0     0.0     0.0     0.0     0.0     0.0     0.0     0.0     0.0     0.1     0.0     0.0     0.0     0.0     0.0     0.0     0.0     0.0
 2015 158    33    0.01    0.34    0.00     171    4.09    61.1   0.041   0.061   4.047   0.025     0.6    16.7     0.2    5350     0.0    1159    0.00    1.16    0.00    0.27     0.0     0.0     0.0     0.0     0.0     0.0     0.0     0.0     0.0    697.     41.     52.     83.     65.     59.     55.     54.     53.     0.7     0.0     0.1     0.1     0.1     0.1     0.1     0.1     0.1     0.0     0.0     0.0     0.0     0.0     0.0     0.0     0.0     0.0     0.1     0.0     0.0     0.0     0.0     0.0     0.0     0.0     0.0
 2015 159    34    0.01    0.39    0.00     177    4.09    62.4   0.041   0.063   4.047   0.025     1.6    41.7     0.4    5291     0.0    1328    0.00    1.33    0.00    0.38     0.0     0.0     0.0     0.0     0.0     0.0     0.0     0.0     0.0    803.     49.    121.     77.     62.     57.     53.     53.     52.     0.8     0.0     0.1     0.1     0.1     0.1     0.1     0.1     0.1     0.0     0.0     0.0     0.0     0.0     0.0     0.0     0.0     0.0     0.2     0.0     0.0     0.0     0.0     0.0     0.0     0.0     0.0
 2015 160    35    0.02    0.45    0.00     182    4.09    69.3   0.041   0.070   4.047   0.028     2.6    59.8     0.7    5289     0.0    6938    0.00    6.94    0.00    2.51     0.0     0.0     0.0     0.0     0.0     0.0     0.0     0.0     0.0   6334.    146.    112.     73.     61.     56.     53.     52.     52.     6.3     0.1     0.1     0.1     0.1     0.1     0.1     0.1     0.1     0.0     0.0     0.0     0.0     0.0     0.0     0.0     0.0     0.0     2.3     0.0     0.0     0.0     0.0     0.0     0.0     0.0     0.0
 2015 161    36    0.02    0.45    0.00     187    4.09    70.8   0.041   0.071   4.047   0.028     0.1     2.7     0.0    5200     0.0    1425    0.00    1.43    0.00    0.26     0.0     0.0     0.0     0.0     0.0     0.0     0.0     0.0     0.0   1084.     24.     21.     24.     60.     56.     53.     52.     52.     1.1     0.0     0.0     0.0     0.1     0.1     0.1     0.1     0.1     0.0     0.0     0.0     0.0     0.0     0.0     0.0     0.0     0.0     0.2     0.0     0.0     0.0     0.0     0.0     0.0     0.0     0.0
 2015 162    37    0.02    0.46    0.00     193    4.09    72.6   0.041   0.073   4.047   0.028     0.6    14.1     0.2    5296     0.0    1834    0.00    1.83    0.00    0.37     0.0     0.0     0.0     0.0     0.0     0.0     0.0     0.0     0.0   1465.     42.     32.     27.     58.     55.     52.     52.     51.     1.5     0.0     0.0     0.0     0.1     0.1     0.1     0.1     0.1     0.0     0.0     0.0     0.0     0.0     0.0     0.0     0.0     0.0     0.3     0.0     0.0     0.0     0.0     0.0     0.0     0.0     0.0
 2015 163    38    0.02    0.50    0.00     198    4.09    74.7   0.041   0.075   4.047   0.029     1.7    36.0     0.4    5306     0.0    2104    0.00    2.10    0.00    0.57     0.0     0.0     0.0     0.0     0.0     0.0     0.0     0.0     0.0   1662.     55.     43.     78.     57.     54.     52.     52.     51.     1.7     0.1     0.0     0.1     0.1     0.1     0.1     0.1     0.1     0.0     0.0     0.0     0.0     0.0     0.0     0.0     0.0     0.0     0.4     0.0     0.0     0.0     0.0     0.0     0.0     0.0     0.0
 2015 164    39    0.02    0.50    0.00     203    4.09    75.7   0.041   0.076   4.047   0.029     0.1     2.8     0.0    5179     0.0    1027    0.00    1.03    0.00    0.19     0.0     0.0     0.0     0.0     0.0     0.0     0.0     0.0     0.0    729.     29.     24.     18.     20.     53.     52.     51.     51.     0.7     0.0     0.0     0.0     0.0     0.1     0.1     0.1     0.1     0.0     0.0     0.0     0.0     0.0     0.0     0.0     0.0     0.0     0.1     0.0     0.0     0.0     0.0     0.0     0.0     0.0     0.0
 2015 165    40    0.02    0.52    0.01     208    4.30    77.1   0.043   0.078   4.258   0.030     0.8    18.0     0.2    5326   213.5    1369    2.19    1.37  211.30    0.70   111.1    54.3    48.1     0.0     0.0     0.0     0.0     0.0     0.0   1029.     46.     39.     24.     23.     53.     52.     52.     51.     2.2     0.6     0.5     0.0     0.0     0.1     0.1     0.1     0.1   110.0    53.8    47.6     0.0     0.0     0.0     0.0     0.0     0.0     0.4     0.1     0.1     0.0     0.0     0.0     0.0     0.0     0.0
 2015 166    41    0.02    0.56    0.01     214    4.37    78.6   0.044   0.079   4.327   0.031     1.9    44.3     0.5    5332    69.9    1540    0.82    1.54   69.11    0.65    37.3    12.8    19.8     0.0     0.0     0.0     0.0     0.0     0.0   1133.     55.     51.     29.     66.     53.     52.     52.     51.     1.6     0.2     0.3     0.0     0.1     0.1     0.1     0.1     0.1    36.8    12.7    19.6     0.0     0.0     0.0     0.0     0.0     0.0     0.5     0.0     0.1     0.0     0.0     0.0     0.0     0.0     0.0
 2015 167    42    0.03    0.63    0.01     219    4.37    81.3   0.044   0.082   4.329   0.032     2.8    62.4     0.7    5422     1.6    2697    0.02    2.70    1.57    0.95     0.0     0.0     1.6     0.0     0.0     0.0     0.0     0.0     0.0   2163.    163.     60.     34.     65.     54.     53.     53.     52.     2.2     0.2     0.1     0.0     0.1     0.1     0.1     0.1     0.1     0.0     0.0     1.6     0.0     0.0     0.0     0.0     0.0     0.0     0.8     0.0     0.0     0.0     0.0     0.0     0.0     0.0     0.0
 2015 168    43    0.03    0.63    0.01     224    4.55    81.9   0.046   0.082   4.502   0.032     0.1     2.7     0.0    5228   175.1     591    1.51    0.59  173.56    0.33     0.0     0.0    95.1    79.9     0.0     0.0     0.0     0.0     0.0    368.     26.     28.     16.     10.     18.     20.     53.     52.     0.4     0.0     0.9     0.7     0.0     0.0     0.0     0.1     0.1     0.0     0.0    94.3    79.3     0.0     0.0     0.0     0.0     0.0     0.1     0.0     0.1     0.1     0.0     0.0     0.0     0.0     0.0
 2015 169    44    0.03    0.64    0.01     230    4.65    82.7   0.047   0.083   4.603   0.032     0.7    15.4     0.2    5436   101.2     785    0.98    0.78  100.21    0.33     0.0     0.0    52.7    48.5     0.0     0.0     0.0     0.0     0.0    511.     41.     44.     25.     16.     21.     22.     52.     52.     0.5     0.0     0.6     0.5     0.0     0.0     0.0     0.1     0.1     0.0     0.0    52.1    48.1     0.0     0.0     0.0     0.0     0.0     0.1     0.0     0.1     0.1     0.0     0.0     0.0     0.0     0.0
 2015 170    45    0.03    0.68    0.01     235    4.70    83.6   0.047   0.084   4.652   0.033     1.7    37.5     0.4    5424    49.8     901    0.52    0.90   49.29    0.35     0.0     0.0    23.3    26.5     0.0     0.0     0.0     0.0     0.0    551.     50.     56.     32.     22.     24.     63.     52.     52.     0.6     0.0     0.3     0.3     0.0     0.0     0.1     0.1     0.1     0.0     0.0    23.1    26.2     0.0     0.0     0.0     0.0     0.0     0.1     0.0     0.1     0.1     0.0     0.0     0.0     0.0     0.0
 2015 171    46    0.03    0.68    0.01     240    4.87    84.0   0.049   0.084   4.823   0.033     0.1     3.2     0.0    5172   172.3     447    1.49    0.45  170.82    0.30     0.0     0.0    91.1    81.2     0.0     0.0     0.0     0.0     0.0    249.     26.     30.     18.     13.     19.     22.     20.     51.     0.2     0.0     0.8     0.7     0.0     0.0     0.0     0.0     0.1     0.0     0.0    90.3    80.5     0.0     0.0     0.0     0.0     0.0     0.0     0.0     0.1     0.1     0.0     0.0     0.0     0.0     0.0
 2015 172    47    0.03    0.70    0.01     246    5.14    84.6   0.051   0.085   5.090   0.033     0.8    17.6     0.2    5219   269.9     596    2.64    0.60  267.27    0.60    54.6    43.2    47.8    47.4    51.8    25.1     0.0     0.0     0.0    321.     38.     42.     27.     19.     22.     23.     54.     49.     0.9     0.4     0.5     0.5     0.5     0.3     0.0     0.1     0.0    54.0    42.8    47.4    46.9    51.3    24.8     0.0     0.0     0.0     0.2     0.1     0.1     0.1     0.1     0.1     0.0     0.0     0.0
 2015 173    48    0.03    0.74    0.01     251    5.26    85.3   0.053   0.086   5.208   0.034     1.8    41.4     0.4    5044   119.7     608    1.27    0.61  118.39    0.44    17.4    11.2    20.0    25.0    31.0    15.0     0.0     0.0     0.0    310.     45.     50.     33.     24.     24.     24.     51.     47.     0.5     0.2     0.3     0.3     0.3     0.2     0.0     0.1     0.0    17.2    11.1    19.7    24.7    30.7    14.9     0.0     0.0     0.0     0.1     0.0     0.1     0.1     0.1     0.0     0.0     0.0     0.0
 2015 174    49    0.03    0.81    0.01     256    5.30    86.2   0.053   0.087   5.250   0.034     2.7    61.3     0.7    4926    42.2     930    0.45    0.93   41.73    0.41     0.0     0.0     3.9    11.5    18.1     8.7     0.0     0.0     0.0    530.    133.     56.     37.     27.     26.     25.     49.     46.     0.5     0.1     0.1     0.2     0.2     0.1     0.0     0.0     0.0     0.0     0.0     3.9    11.4    17.9     8.6     0.0     0.0     0.0     0.2     0.0     0.0     0.0     0.0     0.0     0.0     0.0     0.0
 2015 175    50    0.03    0.81    0.01     260    5.54    86.5   0.055   0.087   5.484   0.035     0.1     2.9     0.0    4686   236.5     285    2.10    0.29  234.39    0.39     0.0     0.0    67.5    69.5    66.4    25.5     7.5     0.0     0.0     94.     21.     26.     18.     15.     23.     24.     18.     45.     0.1     0.0     0.6     0.6     0.6     0.3     0.1     0.0     0.0     0.0     0.0    66.9    68.9    65.9    25.3     7.5     0.0     0.0     0.0     0.0     0.1     0.1     0.1     0.1     0.0     0.0     0.0
 2015 176    51    0.03    0.82    0.01     265    5.68    86.9   0.056   0.087   5.621   0.035     0.7    16.0     0.2    4764   138.2     389    1.34    0.39  136.89    0.33     0.0     0.0    35.8    40.9    41.7    16.0     3.8     0.0     0.0    125.     32.     37.     26.     22.     25.     26.     51.     45.     0.1     0.0     0.4     0.4     0.4     0.2     0.1     0.1     0.0     0.0     0.0    35.4    40.5    41.3    15.8     3.8     0.0     0.0     0.0     0.0     0.1     0.1     0.1     0.0     0.0     0.0     0.0
[...]
 2017 162    55    1.23    3.21    0.45     233    7.21    73.9   1.884   0.075   5.326   0.798    43.5   121.8    17.7    4098     0.0     396    0.00    0.40    0.00    0.50     0.0     0.0     0.0     0.0     0.0     0.0     0.0     0.0     0.0     58.     61.     48.     42.     39.     39.     37.     36.     36.     0.1     0.1     0.0     0.0     0.0     0.0     0.0     0.0     0.0     0.0     0.0     0.0     0.0     0.0     0.0     0.0     0.0     0.0     0.1     0.1     0.0     0.1     0.1     0.1     0.1     0.1     0.1
 2017 163    56    1.24    3.24    0.45     237    7.21    74.2   1.884   0.075   5.326   0.799    11.2    31.6     4.6    3991     0.0     297    0.00    0.30    0.00    0.40     0.0     0.0     0.0     0.0     0.0     0.0     0.0     0.0     0.0     11.     19.     46.     41.     37.     37.     36.     35.     35.     0.0     0.0     0.0     0.0     0.0     0.0     0.0     0.0     0.0     0.0     0.0     0.0     0.0     0.0     0.0     0.0     0.0     0.0     0.0     0.0     0.0     0.1     0.1     0.1     0.1     0.1     0.1
 2017 164    57    1.27    3.31    0.46     241    7.21    74.5   1.884   0.075   5.326   0.799    23.6    66.7     9.8    4015     0.0     344    0.00    0.34    0.00    0.44     0.0     0.0     0.0     0.0     0.0     0.0     0.0     0.0     0.0     18.     60.     45.     40.     37.     37.     36.     35.     35.     0.0     0.1     0.0     0.0     0.0     0.0     0.0     0.0     0.0     0.0     0.0     0.0     0.0     0.0     0.0     0.0     0.0     0.0     0.0     0.1     0.0     0.1     0.1     0.1     0.1     0.1     0.1
 2017 165    58    1.30    3.41    0.48     245    7.21    74.9   1.884   0.076   5.326   0.800    35.5   100.7    14.8    3987     0.0     342    0.00    0.34    0.00    0.44     0.0     0.0     0.0     0.0     0.0     0.0     0.0     0.0     0.0     22.     57.     45.     40.     36.     37.     36.     35.     35.     0.0     0.1     0.0     0.0     0.0     0.0     0.0     0.0     0.0     0.0     0.0     0.0     0.0     0.0     0.0     0.0     0.0     0.0     0.0     0.0     0.0     0.1     0.1     0.1     0.1     0.1     0.1
 2017 166    59    1.34    3.52    0.50     249    7.21    75.2   1.884   0.076   5.326   0.800    39.7   113.1    16.7    4019     0.0     366    0.00    0.37    0.00    0.47     0.0     0.0     0.0     0.0     0.0     0.0     0.0     0.0     0.0     44.     56.     45.     40.     37.     37.     36.     35.     35.     0.0     0.1     0.0     0.0     0.0     0.0     0.0     0.0     0.0     0.0     0.0     0.0     0.0     0.0     0.0     0.0     0.0     0.0     0.0     0.0     0.0     0.1     0.1     0.1     0.1     0.1     0.1
 2017 167    60    1.38    3.63    0.51     253    7.21    75.6   1.884   0.076   5.326   0.801    37.4   106.8    15.9    4101     0.0     369    0.00    0.37    0.00    0.48     0.0     0.0     0.0     0.0     0.0     0.0     0.0     0.0     0.0     40.     56.     46.     41.     38.     38.     37.     36.     36.     0.0     0.1     0.0     0.0     0.0     0.0     0.0     0.0     0.0     0.0     0.0     0.0     0.0     0.0     0.0     0.0     0.0     0.0     0.0     0.0     0.0     0.1     0.1     0.1     0.1     0.1     0.1
 2017 168    61    1.41    3.73    0.53     257    7.21    76.0   1.884   0.077   5.326   0.801    35.3   101.1    15.1    4102     0.0     362    0.00    0.36    0.00    0.47     0.0     0.0     0.0     0.0     0.0     0.0     0.0     0.0     0.0     35.     54.     46.     41.     38.     38.     37.     36.     36.     0.0     0.1     0.0     0.0     0.0     0.0     0.0     0.0     0.0     0.0     0.0     0.0     0.0     0.0     0.0     0.0     0.0     0.0     0.0     0.0     0.0     0.1     0.1     0.1     0.1     0.1     0.1
 2017 169    62    1.45    3.83    0.54     261    7.21    76.3   1.884   0.077   5.326   0.802    33.3    95.8    14.4    3952     0.0     347    0.00    0.35    0.00    0.45     0.0     0.0     0.0     0.0     0.0     0.0     0.0     0.0     0.0     30.     51.     45.     40.     37.     37.     36.     36.     36.     0.0     0.1     0.0     0.0     0.0     0.0     0.0     0.0     0.0     0.0     0.0     0.0     0.0     0.0     0.0     0.0     0.0     0.0     0.0     0.0     0.0     0.1     0.1     0.1     0.1     0.1     0.1
 2017 170    63    1.46    3.85    0.55     265    7.21    76.6   1.884   0.077   5.326   0.802     9.5    27.4     4.2    3891     0.0     315    0.00    0.32    0.00    0.42     0.0     0.0     0.0     0.0     0.0     0.0     0.0     0.0     0.0      6.     48.     43.     39.     37.     36.     36.     35.     35.     0.0     0.0     0.0     0.0     0.0     0.0     0.0     0.0     0.0     0.0     0.0     0.0     0.0     0.0     0.0     0.0     0.0     0.0     0.0     0.0     0.0     0.1     0.1     0.1     0.1     0.1     0.1
 2017 171    64    1.48    3.91    0.55     269    7.21    76.9   1.884   0.078   5.326   0.802    18.5    53.4     8.2    3856     0.0     311    0.00    0.31    0.00    0.41     0.0     0.0     0.0     0.0     0.0     0.0     0.0     0.0     0.0      9.     46.     42.     37.     36.     35.     35.     35.     35.     0.0     0.0     0.0     0.0     0.0     0.0     0.0     0.0     0.0     0.0     0.0     0.0     0.0     0.0     0.0     0.0     0.0     0.0     0.0     0.0     0.0     0.1     0.1     0.1     0.1     0.1     0.1
 2017 172    65    1.50    3.99    0.57     272    7.21    77.3   1.884   0.078   5.326   0.803    28.3    82.2    12.6    3806     0.0     310    0.00    0.31    0.00    0.41     0.0     0.0     0.0     0.0     0.0     0.0     0.0     0.0     0.0     12.     45.     41.     37.     36.     35.     35.     35.     35.     0.0     0.0     0.0     0.0     0.0     0.0     0.0     0.0     0.0     0.0     0.0     0.0     0.0     0.0     0.0     0.0     0.0     0.0     0.0     0.0     0.0     0.1     0.1     0.1     0.1     0.1     0.1
 2017 173    66    1.53    4.07    0.58     276    7.21    77.6   1.884   0.078   5.326   0.803    29.4    85.4    13.2    3752     0.0     319    0.00    0.32    0.00    0.42     0.0     0.0     0.0     0.0     0.0     0.0     0.0     0.0     0.0     23.     44.     40.     36.     36.     35.     35.     35.     35.     0.0     0.0     0.0     0.0     0.0     0.0     0.0     0.0     0.0     0.0     0.0     0.0     0.0     0.0     0.0     0.0     0.0     0.0     0.0     0.0     0.0     0.1     0.1     0.1     0.1     0.1     0.1
 2017 174    67    1.54    4.10    0.58     280    7.21    77.9   1.884   0.079   5.326   0.804     9.0    26.1     4.1    3709     0.0     294    0.00    0.29    0.00    0.39     0.0     0.0     0.0     0.0     0.0     0.0     0.0     0.0     0.0      6.     43.     38.     35.     35.     34.     34.     34.     34.     0.0     0.0     0.0     0.0     0.0     0.0     0.0     0.0     0.0     0.0     0.0     0.0     0.0     0.0     0.0     0.0     0.0     0.0     0.0     0.0     0.0     0.1     0.1     0.1     0.1     0.1     0.1
 2017 175    68    1.56    4.15    0.59     284    7.21    78.2   1.884   0.079   5.326   0.804    17.9    52.2     8.2    3675     0.0     291    0.00    0.29    0.00    0.39     0.0     0.0     0.0     0.0     0.0     0.0     0.0     0.0     0.0     11.     41.     37.     34.     34.     33.     33.     33.     33.     0.0     0.0     0.0     0.0     0.0     0.0     0.0     0.0     0.0     0.0     0.0     0.0     0.0     0.0     0.0     0.0     0.0     0.0     0.0     0.0     0.0     0.1     0.1     0.1     0.1     0.1     0.1
 2017 176    69    1.59    4.23    0.60     287    7.21    78.4   1.884   0.079   5.326   0.804    25.9    75.7    12.0    3600     0.0     289    0.00    0.29    0.00    0.39     0.0     0.0     0.0     0.0     0.0     0.0     0.0     0.0     0.0     15.     40.     36.     33.     34.     33.     33.     33.     33.     0.0     0.0     0.0     0.0     0.0     0.0     0.0     0.0     0.0     0.0     0.0     0.0     0.0     0.0     0.0     0.0     0.0     0.0     0.0     0.0     0.0     0.1     0.1     0.1     0.1     0.1     0.1
 2017 177    70    1.61    4.30    0.62     291    7.21    78.7   1.884   0.079   5.326   0.805    25.2    73.7    11.7    3525     0.0     301    0.00    0.30    0.00    0.39     0.0     0.0     0.0     0.0     0.0     0.0     0.0     0.0     0.0     33.     39.     35.     32.     32.     32.     32.     32.     32.     0.0     0.0     0.0     0.0     0.0     0.0     0.0     0.0     0.0     0.0     0.0     0.0     0.0     0.0     0.0     0.0     0.0     0.0     0.0     0.0     0.0     0.0     0.1     0.1     0.1     0.1     0.1
 2017 178    71    1.63    4.37    0.63     294    7.21    79.0   1.884   0.080   5.326   0.805    23.5    68.9    11.1    3465     0.0     295    0.00    0.30    0.00    0.39     0.0     0.0     0.0     0.0     0.0     0.0     0.0     0.0     0.0     32.     38.     34.     31.     32.     32.     32.     32.     32.     0.0     0.0     0.0     0.0     0.0     0.0     0.0     0.0     0.0     0.0     0.0     0.0     0.0     0.0     0.0     0.0     0.0     0.0     0.0     0.0     0.0     0.0     0.0     0.0     0.0     0.0     0.0
 2017 179    72    1.64    4.39    0.63     298    7.21    79.3   1.884   0.080   5.326   0.806     5.9    17.3     2.8    3429     0.0     270    0.00    0.27    0.00    0.36     0.0     0.0     0.0     0.0     0.0     0.0     0.0     0.0     0.0      7.     38.     34.     30.     32.     32.     32.     32.     32.     0.0     0.0     0.0     0.0     0.0     0.0     0.0     0.0     0.0     0.0     0.0     0.0     0.0     0.0     0.0     0.0     0.0     0.0     0.0     0.0     0.0     0.0     0.0     0.0     0.0     0.0     0.0
 2017 180    73    1.65    4.42    0.64     301    7.21    79.6   1.884   0.080   5.326   0.806    12.7    37.3     6.1    3439     0.0     276    0.00    0.28    0.00    0.36     0.0     0.0     0.0     0.0     0.0     0.0     0.0     0.0     0.0     13.     39.     34.     30.     31.     32.     32.     32.     32.     0.0     0.0     0.0     0.0     0.0     0.0     0.0     0.0     0.0     0.0     0.0     0.0     0.0     0.0     0.0     0.0     0.0     0.0     0.0     0.0     0.0     0.0     0.0     0.0     0.1     0.1     0.1
 2017 181    74    1.67    4.48    0.64     304    7.21    79.9   1.884   0.081   5.326   0.806    19.5    57.3     9.4    3404     0.0     281    0.00    0.28    0.00    0.37     0.0     0.0     0.0     0.0     0.0     0.0     0.0     0.0     0.0     19.     39.     34.     30.     31.     32.     32.     32.     32.     0.0     0.0     0.0     0.0     0.0     0.0     0.0     0.0     0.0     0.0     0.0     0.0     0.0     0.0     0.0     0.0     0.0     0.0     0.0     0.0     0.0     0.0     0.0     0.1     0.1     0.1     0.1
 2017 182    75    1.69    4.54    0.65     308    7.21    80.2   1.884   0.081   5.326   0.807    20.3    59.6     9.9    3384     0.0     302    0.00    0.30    0.00    0.39     0.0     0.0     0.0     0.0     0.0     0.0     0.0     0.0     0.0     40.     39.     33.     29.     31.     32.     32.     32.     32.     0.0     0.0     0.0     0.0     0.0     0.0     0.0     0.0     0.0     0.0     0.0     0.0     0.0     0.0     0.0     0.0     0.0     0.0     0.0     0.0     0.0     0.0     0.0     0.1     0.1     0.1     0.1
 2017 183    76    1.71    4.60    0.66     311    7.21    80.5   1.884   0.081   5.326   0.807    18.9    55.5     9.3    3417     0.0     305    0.00    0.31    0.00    0.40     0.0     0.0     0.0     0.0     0.0     0.0     0.0     0.0     0.0     41.     39.     34.     29.     31.     33.     33.     33.     33.     0.0     0.0     0.0     0.0     0.0     0.0     0.0     0.0     0.0     0.0     0.0     0.0     0.0     0.0     0.0     0.0     0.0     0.0     0.0     0.0     0.0     0.0     0.0     0.1     0.1     0.1     0.1
 2017 184    77    1.72    4.61    0.67     315    7.21    80.8   1.884   0.081   5.326   0.807     5.0    14.8     2.5    3391     0.0     275    0.00    0.28    0.00    0.37     0.0     0.0     0.0     0.0     0.0     0.0     0.0     0.0     0.0      9.     40.     34.     29.     31.     33.     33.     33.     33.     0.0     0.0     0.0     0.0     0.0     0.0     0.0     0.0     0.0     0.0     0.0     0.0     0.0     0.0     0.0     0.0     0.0     0.0     0.0     0.0     0.0     0.0     0.0     0.1     0.1     0.1     0.1
 2017 185    78    1.73    4.64    0.67     318    7.21    81.0   1.884   0.082   5.326   0.808    10.5    30.9     5.2    3356     0.0     275    0.00    0.28    0.00    0.36     0.0     0.0     0.0     0.0     0.0     0.0     0.0     0.0     0.0     16.     39.     33.     28.     30.     32.     32.     32.     32.     0.0     0.0     0.0     0.0     0.0     0.0     0.0     0.0     0.0     0.0     0.0     0.0     0.0     0.0     0.0     0.0     0.0     0.0     0.0     0.0     0.0     0.0     0.0     0.1     0.1     0.1     0.1
 2017 186    79    1.74    4.69    0.68     321    7.21    81.3   1.884   0.082   5.326   0.808    15.2    44.6     7.6    3219     0.0     268    0.00    0.27    0.00    0.35     0.0     0.0     0.0     0.0     0.0     0.0     0.0     0.0     0.0     20.     37.     31.     27.     29.     31.     31.     31.     31.     0.0     0.0     0.0     0.0     0.0     0.0     0.0     0.0     0.0     0.0     0.0     0.0     0.0     0.0     0.0     0.0     0.0     0.0     0.0     0.0     0.0     0.0     0.0     0.0     0.0     0.0     0.0
 2017 187    80    1.76    4.73    0.69     324    7.21    81.6   1.884   0.082   5.326   0.809    16.0    47.1     8.1    3105     0.0     282    0.00    0.28    0.00    0.36     0.0     0.0     0.0     0.0     0.0     0.0     0.0     0.0     0.0     42.     36.     30.     25.     28.     30.     30.     30.     30.     0.0     0.0     0.0     0.0     0.0     0.0     0.0     0.0     0.0     0.0     0.0     0.0     0.0     0.0     0.0     0.0     0.0     0.0     0.0     0.0     0.0     0.0     0.0     0.0     0.0     0.0     0.0
 2017 188    81    1.77    4.78    0.69     327    7.21    81.8   1.884   0.082   5.326   0.809    14.9    43.7     7.6    3028     0.0     271    0.00    0.27    0.00    0.35     0.0     0.0     0.0     0.0     0.0     0.0     0.0     0.0     0.0     40.     34.     29.     24.     27.     29.     29.     29.     29.     0.0     0.0     0.0     0.0     0.0     0.0     0.0     0.0     0.0     0.0     0.0     0.0     0.0     0.0     0.0     0.0     0.0     0.0     0.0     0.0     0.0     0.0     0.0     0.0     0.0     0.0     0.0
 2017 189    82    1.79    4.82    0.70     330    7.21    82.1   1.884   0.083   5.326   0.809    13.8    40.6     7.1    2947     0.0     263    0.00    0.26    0.00    0.34     0.0     0.0     0.0     0.0     0.0     0.0     0.0     0.0     0.0     37.     33.     28.     24.     26.     29.     28.     29.     29.     0.0     0.0     0.0     0.0     0.0     0.0     0.0     0.0     0.0     0.0     0.0     0.0     0.0     0.0     0.0     0.0     0.0     0.0     0.0     0.0     0.0     0.0     0.0     0.0     0.0     0.0     0.0
 2017 190    83    1.80    4.86    0.71     333    7.21    82.4   1.884   0.083   5.326   0.810    12.9    37.7     6.7    2903     0.0     263    0.00    0.26    0.00    0.34     0.0     0.0     0.0     0.0     0.0     0.0     0.0     0.0     0.0     37.     33.     28.     23.     26.     29.     29.     29.     29.     0.0     0.0     0.0     0.0     0.0     0.0     0.0     0.0     0.0     0.0     0.0     0.0     0.0     0.0     0.0     0.0     0.0     0.0     0.0     0.0     0.0     0.0     0.0     0.0     0.0     0.0     0.0
 2017 191    84    1.80    4.87    0.71     336    7.21    82.6   1.884   0.083   5.326   0.810     4.5    13.2     2.4    3010     0.0     242    0.00    0.24    0.00    0.32     0.0     0.0     0.0     0.0     0.0     0.0     0.0     0.0     0.0     11.     34.     29.     24.     26.     29.     29.     29.     30.     0.0     0.0     0.0     0.0     0.0     0.0     0.0     0.0     0.0     0.0     0.0     0.0     0.0     0.0     0.0     0.0     0.0     0.0     0.0     0.0     0.0     0.0     0.0     0.0     0.0     0.0     0.0
 2017 192    85    1.81    4.89    0.72     339    7.21    82.9   1.884   0.084   5.326   0.810     8.4    24.7     4.5    3033     0.0     254    0.00    0.25    0.00    0.33     0.0     0.0     0.0     0.0     0.0     0.0     0.0     0.0     0.0     18.     35.     30.     24.     27.     30.     30.     30.     30.     0.0     0.0     0.0     0.0     0.0     0.0     0.0     0.0     0.0     0.0     0.0     0.0     0.0     0.0     0.0     0.0     0.0     0.0     0.0     0.0     0.0     0.0     0.0     0.0     0.0     0.0     0.0
 2017 193    86    1.82    4.93    0.72     342    7.21    83.2   1.884   0.084   5.326   0.811    11.2    32.8     6.0    3042     0.0     287    0.00    0.29    0.00    0.37     0.0     0.0     0.0     0.0     0.0     0.0     0.0     0.0     0.0     45.     36.     31.     25.     28.     31.     31.     31.     31.     0.0     0.0     0.0     0.0     0.0     0.0     0.0     0.0     0.0     0.0     0.0     0.0     0.0     0.0     0.0     0.0     0.0     0.0     0.0     0.0     0.0     0.0     0.0     0.0     0.0     0.0     0.0
 2017 194    87    1.83    4.96    0.73     345    7.21    83.4   1.884   0.084   5.326   0.811    10.4    30.3     5.6    3088     0.0     292    0.00    0.29    0.00    0.38     0.0     0.0     0.0     0.0     0.0     0.0     0.0     0.0     0.0     45.     37.     31.     25.     28.     32.     31.     31.     31.     0.0     0.0     0.0     0.0     0.0     0.0     0.0     0.0     0.0     0.0     0.0     0.0     0.0     0.0     0.0     0.0     0.0     0.0     0.0     0.0     0.0     0.0     0.0     0.0     0.0     0.0     0.0
 2017 195    88    1.84    4.99    0.73     348    7.21    83.7   1.884   0.084   5.326   0.811     9.6    28.1     5.2    3124     0.0     295    0.00    0.29    0.00    0.38     0.0     0.0     0.0     0.0     0.0     0.0     0.0     0.0     0.0     45.     38.     32.     26.     29.     32.     32.     31.     31.     0.0     0.0     0.0     0.0     0.0     0.0     0.0     0.0     0.0     0.0     0.0     0.0     0.0     0.0     0.0     0.0     0.0     0.0     0.0     0.0     0.0     0.0     0.0     0.0     0.0     0.0     0.0
 2017 196    89    1.85    4.99    0.73     352    7.21    84.0   1.884   0.085   5.326   0.812     2.3     6.8     1.3    3118     0.0     261    0.00    0.26    0.00    0.35     0.0     0.0     0.0     0.0     0.0     0.0     0.0     0.0     0.0     10.     38.     32.     26.     29.     32.     32.     32.     32.     0.0     0.0     0.0     0.0     0.0     0.0     0.0     0.0     0.0     0.0     0.0     0.0     0.0     0.0     0.0     0.0     0.0     0.0     0.0     0.0     0.0     0.0     0.0     0.1     0.0     0.0     0.0
 2017 197    90    1.85    5.01    0.74     355    7.21    84.3   1.884   0.085   5.326   0.812     4.4    12.8     2.4    3078     0.0     265    0.00    0.27    0.00    0.35     0.0     0.0     0.0     0.0     0.0     0.0     0.0     0.0     0.0     16.     38.     31.     25.     29.     32.     31.     31.     31.     0.0     0.0     0.0     0.0     0.0     0.0     0.0     0.0     0.0     0.0     0.0     0.0     0.0     0.0     0.0     0.0     0.0     0.0     0.0     0.0     0.0     0.0     0.0     0.0     0.0     0.0     0.0
 2017 198    91    1.86    5.02    0.74     358    7.21    84.5   1.884   0.085   5.326   0.812     6.2    18.1     3.5    2989     0.0     266    0.00    0.27    0.00    0.35     0.0     0.0     0.0     0.0     0.0     0.0     0.0     0.0     0.0     21.     38.     30.     25.     28.     31.     31.     31.     31.     0.0     0.0     0.0     0.0     0.0     0.0     0.0     0.0     0.0     0.0     0.0     0.0     0.0     0.0     0.0     0.0     0.0     0.0     0.0     0.0     0.0     0.0     0.0     0.0     0.0     0.0     0.0
