*PLANT C OUTPUT FILE

*DSSAT Cropping System Model Ver. 4.7.5.007 -  MAR 01, 2026 21:19:28
@YEAR DOY   DAS   DAP   TWAD    PHAD    CMAD    CGRD    GRAD    MRAD    CHAD   CL%D   CS%D   TGNN   TGAV    GN%D    GL%D    GC%D
 2015 103     1     0      0  0.0000  0.0000  0.0000  0.0000  0.0000 0.00000  0.000  0.000 28.006 25.028  0.0000  0.0000  0.0000
 2015 104     2     1      0  0.0000  0.0000  0.0000  0.0000  0.0000 0.00000  0.000  0.000 26.508 24.337  0.0000  0.0000  0.0000
 2015 105     3     2      0  0.0000  0.0000  0.0000  0.0000  0.0000 0.00000  0.000  0.000 27.754 24.883  0.0000  0.0000  0.0000
 2015 106     4     3      0  0.0000  0.0000  0.0000  0.0000  0.0000 0.00000  0.000  0.000 26.369 23.534  0.0000  0.0000  0.0000
 2015 107     5     4     37  0.0000  0.0045  0.0030  0.0008  0.0000 0.00000  3.900  7.792 27.753 24.500  0.0000  0.0000  0.0000
 2015 108     6     5     39  0.5327  0.0042  0.3193  0.0924  0.0568 0.00000  3.833  7.613 28.002 24.260  0.0000  0.0000  0.0000
 2015 109     7     6     43  0.6431  0.0044  0.3865  0.1142  0.0661 0.00000  3.778  7.454 28.034 24.364  0.0000  0.0000  0.0000
 2015 110     8     7     47  0.6959  0.0045  0.5174  0.1065  0.0692 0.00000  3.786  7.328 27.613 23.909  0.0000  0.0000  0.0000
 2015 111     9     8     53  0.9777  0.0052  0.7011  0.1463  0.0975 0.00000  3.789  7.271 28.406 25.088  0.0000  0.0000  0.0000
 2015 112    10     9     59  1.1463  0.0055  0.6546  0.2117  0.1016 0.00000  3.719  7.255 26.792 23.650  0.0000  0.0000  0.0000
 2015 113    11    10     66  1.2687  0.0063  0.8427  0.2347  0.1210 0.00000  3.738  7.175 28.028 24.573  0.0000  0.0000  0.0000
 2015 114    12    11     75  1.5426  0.0069  1.0111  0.2775  0.1389 0.00000  3.755  7.122 27.781 24.049  0.0000  0.0000  0.0000
 2015 115    13    12     87  1.9841  0.0081  1.2736  0.3471  0.1836 0.00000  3.764  7.090 28.404 24.916  0.0000  0.0000  0.0000
 2015 116    14    13     99  2.2343  0.0088  1.4227  0.4475  0.1892 0.00000  3.775  7.070 27.229 23.603  0.0000  0.0000  0.0000
 2015 117    15    14    115  2.7454  0.0097  1.7325  0.5157  0.2128 0.00000  3.759  7.016 26.435 22.637  0.0000  0.0000  0.0000
 2015 118    16    15    134  3.0276  0.0000  2.0648  0.4951  0.2324 0.00348  3.879  7.190 26.260 22.324  0.0000  0.0000  0.0000
 2015 119    17    16    154  3.3284  0.0122  2.0870  0.6069  0.2360 0.00000  3.855  7.160 25.612 21.016  0.0000  0.0000  0.0000
 2015 120    18    17    153  0.0192  0.0010  0.0000  0.0034  0.0114 0.00000  3.848  7.149  7.477  5.319  0.0000  0.0000  0.0000
 2015 121    19    18    174  3.5897  0.0133  2.3084  0.6102  0.2541 0.00000  3.839  7.149 26.178 20.577  0.0000  0.0000  0.0000
 2015 122    20    19    197  4.3274  0.0158  2.1828  0.8356  0.3086 0.00000  3.740  7.109 25.873 21.039  0.0000  0.0000  0.0000
 2015 123    21    20    221  4.5052  0.0176  2.5015  0.8218  0.3251 0.00000  3.683  7.044 25.578 20.955  0.0000  0.0000  0.0000
 2015 124    22    21    246  4.2878  0.0186  2.7822  0.8569  0.3003 0.00000  3.703  7.033 24.230 20.094  0.0000  0.0000  0.0000
 2015 125    23    22    283  5.7615  0.0223  4.1215  1.0159  0.4237 0.00000  3.727  7.050 25.698 21.321  0.0000  0.0000  0.0000
 2015 126    24    23    318  5.5757  0.0000  3.5766  0.8267  0.4170 0.28929  4.932  8.120 24.679 21.033  0.0000  0.0000  0.0000
 2015 127    25    24    367  7.8067  0.0360  5.5116  1.3163  0.5681 0.00000  4.759  7.900 25.519 21.388  0.0000  0.0000  0.0000
 2015 128    26    25    419  8.8827  0.0432  5.6644  1.5449  0.7032 0.00000  4.615  7.768 26.344 22.458  0.0000  0.0000  0.0000
 2015 129    27    26    472  9.4127  0.0455  5.1492  1.8473  0.6789 0.00000  4.419  7.662 24.625 21.087  0.0000  0.0000  0.0000
 2015 130    28    27    518  9.0449  0.0510  4.0466  1.9188  0.7110 0.00000  4.260  7.528 25.844 21.405  0.0000  0.0000  0.0000
 2015 131    29    28    546  5.9549  0.0447  4.2594  1.0550  0.4250 0.00000  4.299  7.440 20.368 18.426  0.0000  0.0000  0.0000
 2015 132    30    29    593  9.2446  0.0513  6.0548  1.7320  0.6300 0.00000  4.295  7.377 21.358 19.591  0.0000  0.0000  0.0000
 2015 133    31    30    650 11.0139  0.0573  7.1947  1.9886  0.7596 0.00000  4.303  7.325 23.099 19.912  0.0000  0.0000  0.0000
 2015 134    32    31    708 12.6091  0.0000  7.5632  1.7018  0.8908 1.39229  6.776  9.232 24.549 20.151  0.0000  0.0000  0.0000
 2015 135    33    32    785 12.2493  0.0000  8.1075  1.8668  0.8432 0.38873  7.206  9.594 23.827 19.396  0.0000  0.0000  0.0000
 2015 136    34    33    845 12.1103  0.1061  7.9360  2.2200  0.8401 0.00000  6.985  9.255 22.895 19.158  0.0000  0.0000  0.0000
 2015 137    35    34    920 15.5768  0.1234  9.2220  3.0450  1.1625 0.00000  6.723  8.928 24.788 20.671  0.0000  0.0000  0.0000
 2015 138    36    35    983 16.6268  0.1368  8.5607  3.5412  1.3252 0.00000  6.574  8.654 25.378 21.435  0.0000  0.0000  0.0000
 2015 139    37    36   1042 17.1128  0.1588 10.8821  3.1840  1.5571 0.00000  6.637  8.404 25.658 23.169  0.0000  0.0000  0.0000
 2015 140    38    37   1137 17.3648  0.1493 10.8004  3.1926  1.3942 0.00000  6.339  8.191 24.608 21.291  0.0000  0.0000  0.0000
 2015 141    39    38   1233 18.5808  0.1544 11.5521  3.3070  1.4577 0.00000  6.132  8.013 24.645 20.844  0.0000  0.0000  0.0000
 2015 142    40    39   1336 18.9554  0.1659 13.6464  3.0742  1.5368 0.00000  6.026  7.856 24.636 21.009  0.0000  0.0000  0.0000
 2015 143    41    40   1437 19.3646  0.1937 11.9537  3.3336  1.7885 0.00493  5.832  7.709 25.283 22.486  0.0000  0.0000  0.0000
 2015 144    42    41   1546 21.7522  0.2066 12.7976  3.8588  2.0429 0.14479  5.714  7.744 26.306 22.820  0.0000  0.0000  0.0000
 2015 145    43    42   1660 23.3150  0.2317 13.8412  4.0949  2.3269 0.31779  5.687  7.940 26.730 23.658  0.0000  0.0000  0.0000
 2015 146    44    43   1786 23.9310  0.2478 16.5560  3.5232  2.3573 0.58656  5.856  8.364 26.453 23.244  0.0000  0.0000  0.0000
 2015 147    45    44   1912 23.2541  0.2756 13.2349  4.1438  2.3925 0.58639  5.818  8.708 26.532 23.290  0.0000  0.0000  0.0000
 2015 148    46    45   2010 21.6876  0.2403 11.3888  4.3027  1.7947 0.53855  5.863  8.995 24.782 19.436  0.0000  0.0000  0.0000
 2015 149    47    46   2103 20.5729  0.2389 11.1626  4.0803  1.6274 0.55755  5.933  9.278 24.034 18.242  0.0000  0.0000  0.0000
 2015 150    48    47   2206 22.1047  0.2747 11.9185  4.4886  1.9247 0.63084  6.001  9.575 25.605 19.400  0.0000  0.0000  0.0000
 2015 151    49    48   2315 23.5311  0.3164 12.7548  4.6481  2.2763 0.72996  6.109  9.932 27.170 20.725  0.0000  0.0000  0.0000
 2015 152    50    49   2407 20.0443  0.3390 12.1280  3.5451  2.0675 0.63515  6.245 10.216 26.350 20.424  0.0000  0.0000  0.0000
 2015 153    51    50   2521 24.8915  0.4262 13.2351  5.1583  2.6382 0.63229  6.242 10.404 26.412 22.244  0.0000  0.0000  0.0000
 2015 154    52    51   2625 24.3200  0.4559 12.1200  5.4900  2.5169 0.31218  6.142 10.360 25.524 21.563  3.6323  2.9519 64.8465
 2015 155    53    52   2727 24.6985  0.4693 13.6793  5.2295  2.4459 0.23724  6.125 10.281 24.884 20.855  3.6168  2.9240 64.9711
 2015 156    54    53   2819 24.4172  0.0000 10.8252  3.4403  2.4769 5.07570  7.451 13.981 24.883 20.854  3.6138  2.9186 64.9951
 2015 157    55    54   2922 23.9648  0.6721 14.3869  4.8479  2.5907 0.00000  7.386 13.659 25.486 21.287  3.6185  2.9278 64.9567
 2015 158    56    55   3022 23.9244  0.6951 14.2524  4.9039  2.6549 0.00000  7.323 13.329 25.461 21.400  3.6217  2.9338 64.9306
 2015 159    57    56   3122 23.1962  0.6881 14.1762  4.7266  2.5590 0.00000  7.262 13.005 25.437 20.791  3.6180  2.9265 64.9612
 2015 160    58    57   3238 23.0497  0.0000 10.8259  2.6733  2.6010 5.48730  8.744 17.035 25.621 20.770  3.6155  2.9218 64.9812
 2015 161    59    58   3325 19.4401  0.8843 13.1514  3.5370  2.4167 0.00000  8.688 16.632 24.986 20.617  3.6130  2.9164 65.0025
 2015 162    60    59   3413 22.8664  0.9165 14.7611  4.3386  2.8263 0.00000  8.635 16.209 25.885 21.516  3.6163  2.9227 64.9753
 2015 163    61    60   3515 21.8805  0.0000 12.9245  3.1193  2.8711 1.85870  9.307 17.627 25.626 21.877  3.6206  2.9297 64.9416
 2015 164    62    61   3604 21.8987  0.6553 14.3521  3.8627  2.8174 0.08690  9.365 17.410 26.036 21.221  3.6208  2.9304 64.9398
 2015 165    63    62   3680 21.4205  0.9836 13.7999  4.0256  2.7924 0.00000  9.298 16.941 26.021 21.000  3.6201  2.9294 64.9450
 2015 166    64    63   3757 21.5816  1.0014 14.0519  3.9639  2.9601 0.00000  9.228 16.451 26.448 21.840  3.6225  2.9335 64.9256
 2015 167    65    64   3843 20.4595  0.9675 13.4919  3.7347  2.7826 0.00000  9.149 15.962 26.152 21.373  3.6230  2.9345 64.9220
 2015 168    66    65   3926 19.1914  0.9733 12.9576  3.3693  2.7974 0.00000  9.067 15.459 26.219 21.921  3.6250  2.9377 64.9058
 2015 169    67    66   4010 19.9744  0.9486 13.2324  3.6120  2.7918 0.00000  8.977 14.955 26.223 21.753  3.6262  2.9398 64.8963
 2015 170    68    67   4094 19.3695  0.9077 12.9954  3.5415  2.5415 0.00000  8.878 14.459 24.951 20.894  3.6251  2.9378 64.9056
 2015 171    69    68   4177 17.2203  0.7315 11.7371  3.2059  2.0298 0.03310  8.808 14.080 23.346 18.739  3.6269  2.9089 64.9230
 2015 172    70    69   4263 17.4562  0.4624 11.8131  2.9054  2.0650 0.13598  8.870 13.948 22.489 19.223  3.6068  2.9334 65.0238
 2015 173    71    70   4345 17.1643  0.7981 11.6817  3.1900  2.0675 0.00807  8.752 13.488 23.684 19.146  3.6058  2.9205 65.0436
 2015 174    72    71   4431 17.9386  0.8260 12.0872  3.3406  2.2329 0.00000  8.617 12.993 24.070 20.048  3.6047  2.9165 65.0539
 2015 175    73    72   4507 16.0921  0.7580 10.8568  2.9909  1.9963 0.00853  8.481 12.536 23.703 19.200  3.6042  2.9066 65.0673
 2015 176    74    73   4579 15.3013  0.6109 10.4005  2.5117  1.9569 0.05533  8.409 12.201 24.137 19.152  3.5837  2.9389 65.1628
 2015 177    75    74   4635 12.1197  0.5810  8.5206  1.8573  1.6628 0.05433  8.336 11.883 22.947 18.340  3.5668  2.9617 65.2457
 2015 178    76    75   4708 14.7106  0.6746  9.8788  2.7552  1.6783 0.00974  8.173 11.450 22.262 17.861  3.5597  2.9602 65.2915
 2015 179    77    76   4780 14.2856  0.2943  9.1749  2.6310  1.6697 0.14623  8.214 11.403 22.777 17.860  3.5585  2.9489 65.3105
 2015 180    78    77   4848 15.3266  0.7032  9.9089  2.8821  1.8791 0.23247  8.073 11.119 23.711 19.034  3.5587  2.9421 65.3158
 2015 181    79    78   4881 11.0733  0.0000  6.4514  1.5016  1.6906 0.98832  8.535 12.045 23.979 19.060  3.5589  2.9379 65.3191
 2015 182    80    79   4909  7.5508  0.7405  4.8276  0.8380  1.6592 0.77169  8.544 12.245 25.518 19.946  3.5592  2.9368 65.3181
 2015 183    81    80   4925  6.0980  0.7444  3.5649  0.7252  1.6135 0.63468  8.473 12.286 25.262 20.308  3.5595  2.9364 65.3168
 2015 184    82    81   4935  4.8430  0.7504  2.1390  0.5480  1.5321 0.89180  8.416 12.556 25.268 20.142  3.5595  2.9364 65.3168
 2015 185    83    82   4787  3.9589  0.7469  1.6450  0.4730  1.4864 0.68539  8.099 12.224 25.708 19.928  3.5595  2.9364 65.3168
 2015 186    84    83   4678  3.6535  0.6436  1.5010  0.4418  1.3515 0.62641  7.799 12.000 25.606 19.274  3.5595  2.9364 65.3168
 2015 187    85    84   4598  3.5842  0.5792  1.4901  0.4292  1.2770 0.61653  7.514 11.887 25.222 19.096  3.5595  2.9364 65.3168
 2015 188    86    85   4544  3.9952  0.5244  1.8979  0.4706  1.1035 0.75359  7.241 12.011 21.852 18.134  3.5595  2.9363 65.3168
 2015 189    87    86   4492  1.6342  0.4759  0.5707  0.3048  0.7893 0.21913  6.865 11.603 17.709 16.091  3.5595  2.9363 65.3169
 2015 190    88    87   4458  2.7872  0.4740  1.1121  0.3599  1.0797 0.44969  6.559 11.503 23.368 18.581  3.5595  2.9363 65.3169
 2015 191    89    88   4424  1.9622  0.4723  0.5234  0.2684  1.2116 0.21085  6.199 11.127 26.083 20.228  3.5595  2.9363 65.3169
 2015 192    90    89   4397  2.0432  0.4530  0.5509  0.2554  1.2742 0.21943  5.844 10.792 26.574 21.063  3.5595  2.9363 65.3168
 2015 193    91    90   4373  1.7200  0.4205  0.4393  0.2022  1.1787 0.17141  5.498 10.438 26.231 20.270  3.5595  2.9363 65.3168

*DSSAT Cropping System Model Ver. 4.7.5.007 -  MAR 01, 2026 21:19:28
@YEAR DOY   DAS   DAP   TWAD    PHAD    CMAD    CGRD    GRAD    MRAD    CHAD   CL%D   CS%D   TGNN   TGAV    GN%D    GL%D    GC%D
 2015 126     1     0      0  0.0000  0.0000  0.0000  0.0000  0.0000 0.00000  0.000  0.000 24.679 21.033  0.0000  0.0000  0.0000
 2015 127     2     1      0  0.0000  0.0000  0.0000  0.0000  0.0000 0.00000  0.000  0.000 25.519 21.388  0.0000  0.0000  0.0000
 2015 128     3     2      0  0.0000  0.0000  0.0000  0.0000  0.0000 0.00000  0.000  0.000 26.344 22.458  0.0000  0.0000  0.0000
 2015 129     4     3      0  0.0000  0.0000  0.0000  0.0000  0.0000 0.00000  0.000  0.000 24.625 21.087  0.0000  0.0000  0.0000
 2015 130     5     4     37  0.0000  0.0038  0.0026  0.0008  0.0000 0.00000  3.915  7.822 25.844 21.405  0.0000  0.0000  0.0000
 2015 131     6     5     38  0.2441  0.0030  0.1492  0.0434  0.0230 0.00000  3.857  7.685 20.368 18.426  0.0000  0.0000  0.0000
 2015 132     7     6     40  0.4150  0.0033  0.2560  0.0747  0.0335 0.00000  3.808  7.550 21.358 19.591  0.0000  0.0000  0.0000
 2015 133     8     7     43  0.5404  0.0035  0.3338  0.0965  0.0417 0.00000  3.767  7.428 23.099 19.912  0.0000  0.0000  0.0000
 2015 134     9     8     46  0.6744  0.0037  0.4179  0.1218  0.0510 0.00000  3.732  7.330 24.549 20.151  0.0000  0.0000  0.0000
 2015 135    10     9     51  0.7435  0.0038  0.5406  0.1242  0.0526 0.00000  3.747  7.274 23.827 19.396  0.0000  0.0000  0.0000
 2015 136    11    10     56  0.8033  0.0041  0.4863  0.1478  0.0554 0.00000  3.703  7.245 22.895 19.158  0.0000  0.0000  0.0000
 2015 137    12    11     62  1.0845  0.0049  0.6789  0.1933  0.0795 0.00000  3.667  7.249 24.788 20.671  0.0000  0.0000  0.0000
 2015 138    13    12     69  1.2310  0.0057  0.7556  0.2313  0.0952 0.00000  3.650  7.184 25.378 21.435  0.0000  0.0000  0.0000
 2015 139    14    13     77  1.4629  0.0069  0.9699  0.2661  0.1251 0.00000  3.682  7.121 25.658 23.169  0.0000  0.0000  0.0000
 2015 140    15    14     87  1.7089  0.0070  1.1284  0.2941  0.1256 0.00000  3.709  7.091 24.608 21.291  0.0000  0.0000  0.0000
 2015 141    16    15     99  2.0225  0.0077  1.1650  0.3741  0.1424 0.00000  3.673  7.072 24.645 20.844  0.0000  0.0000  0.0000
 2015 142    17    16    113  2.2938  0.0087  1.6068  0.4205  0.1630 0.00000  3.704  7.067 24.636 21.009  0.0000  0.0000  0.0000
 2015 143    18    17    129  2.7166  0.0110  1.7442  0.4857  0.2135 0.00000  3.721  7.052 25.283 22.486  0.0000  0.0000  0.0000
 2015 144    19    18    149  3.3893  0.0127  1.9734  0.6117  0.2687 0.00000  3.656  7.029 26.306 22.820  0.0000  0.0000  0.0000
 2015 145    20    19    166  3.3626  0.0152  1.8335  0.6086  0.2944 0.00000  3.593  6.933 26.730 23.658  0.0000  0.0000  0.0000
 2015 146    21    20    180  2.6763  0.0164  1.4527  0.4793  0.2532 0.00000  3.527  6.809 26.453 23.244  0.0000  0.0000  0.0000
 2015 147    22    21    202  3.8921  0.0174  2.5231  0.7031  0.3362 0.00000  3.545  6.742 26.532 23.290  0.0000  0.0000  0.0000
 2015 148    23    22    224  3.9383  0.0154  2.3099  0.8109  0.2665 0.00000  3.540  6.778 24.782 19.436  0.0000  0.0000  0.0000
 2015 149    24    23    245  4.0623  0.0158  2.7800  0.7926  0.2568 0.00000  3.583  6.632 24.034 18.242  0.0000  0.0000  0.0000
 2015 150    25    24    262  4.8713  0.0184  2.8105  1.0189  0.3332 0.00000  3.557  6.260 25.605 19.400  0.0000  0.0000  0.0000
 2015 151    26    25    293  5.6929  0.0206  3.4400  1.1314  0.4245 0.00000  3.553  6.281 27.170 20.725  0.0000  0.0000  0.0000
 2015 152    27    26    331  6.3704  0.0230  4.2452  1.2266  0.4582 0.00000  3.581  6.480 26.350 20.424  0.0000  0.0000  0.0000
 2015 153    28    27    377  7.7668  0.0301  4.7499  1.5574  0.6122 0.00000  3.564  6.646 26.412 22.244  0.0000  0.0000  0.0000
 2015 154    29    28    426  8.4718  0.0339  5.0263  1.7152  0.6386 0.00000  3.537  6.754 25.524 21.563  0.0000  0.0000  0.0000
 2015 155    30    29    475  8.6446  0.0373  5.0519  1.6814  0.6348 0.00000  3.497  6.739 24.884 20.855  0.0000  0.0000  0.0000
 2015 156    31    30    519  7.9625  0.0415  5.1311  1.4908  0.6218 0.00000  3.500  6.686 24.883 20.854  0.0000  0.0000  0.0000
 2015 157    32    31    578 10.3822  0.0462  6.0967  2.2203  0.7951 0.00000  3.484  6.757 25.486 21.287  0.0000  0.0000  0.0000
 2015 158    33    32    637 11.4585  0.0523  7.0526  2.3235  0.8860 0.00000  3.537  6.799 25.461 21.400  0.0000  0.0000  0.0000
 2015 159    34    33    690 12.1940  0.0564  7.5423  2.2458  0.9161 0.00000  3.621  6.752 25.437 20.791  0.0000  0.0000  0.0000
 2015 160    35    34    739 11.7753  0.0616  8.0059  2.0125  0.9199 0.00000  3.671  6.554 25.621 20.770  0.0000  0.0000  0.0000
 2015 161    36    35    805 11.7629  0.0654  7.0131  2.3288  0.9221 0.00000  3.631  6.606 24.986 20.617  0.0000  0.0000  0.0000
 2015 162    37    36    874 14.4461  0.0751  8.8739  2.7622  1.1690 0.00000  3.693  6.649 25.885 21.516  0.0000  0.0000  0.0000
 2015 163    38    37    944 15.1159  0.0853 10.8239  2.5522  1.2632 0.00000  3.851  6.682 25.626 21.877  0.0000  0.0000  0.0000
 2015 164    39    38   1005 15.9893  0.0901  9.2889  3.2347  1.2974 0.00000  3.898  6.642 26.036 21.221  0.0000  0.0000  0.0000
 2015 165    40    39   1086 16.5128  0.0955 10.0811  3.2195  1.3352 0.00000  3.916  6.670 26.021 21.000  0.0000  0.0000  0.0000
 2015 166    41    40   1173 17.8397  0.1096 10.8666  3.4867  1.5312 0.00000  3.927  6.686 26.448 21.840  0.0000  0.0000  0.0000
 2015 167    42    41   1266 18.0888  0.1167 12.6309  2.8223  1.5349 0.00373  3.998  6.699 26.152 21.373  0.0000  0.0000  0.0000
 2015 168    43    42   1360 17.9490  0.1323 10.9816  3.4760  1.6280 0.11563  4.023  6.859 26.219 21.921  0.0000  0.0000  0.0000
 2015 169    44    43   1458 19.7700  0.1436 11.3309  4.0460  1.7578 0.23700  4.095  7.143 26.223 21.753  0.0000  0.0000  0.0000
 2015 170    45    44   1565 20.2647  0.1534 14.1295  3.1512  1.7008 0.44989  4.326  7.628 24.951 20.894  0.0000  0.0000  0.0000
 2015 171    46    45   1665 18.9778  0.1518 11.7763  3.5510  1.4163 0.47429  4.475  8.060 23.346 18.739  0.0000  0.0000  0.0000
 2015 172    47    46   1766 20.6838  0.1761 10.6607  4.6279  1.5585 0.48344  4.560  8.421 22.489 19.223  0.0000  0.0000  0.0000
 2015 173    48    47   1859 20.6451  0.1934 11.0494  4.4937  1.6188 0.54603  4.702  8.787 23.684 19.146  0.0000  0.0000  0.0000
 2015 174    49    48   1971 22.1789  0.0000 12.0619  3.0398  1.8448 3.19103  5.794 11.703 24.070 20.048  0.0000  0.0000  0.0000
 2015 175    50    49   2080 20.2704  0.2911 12.5442  3.7164  1.6893 0.66388  5.890 11.914 23.703 19.200  0.0000  0.0000  0.0000
 2015 176    51    50   2194 21.7732  0.3127 11.9653  4.6064  1.8097 0.59571  5.917 12.060 24.137 19.152  0.0000  0.0000  0.0000
 2015 177    52    51   2298 20.7509  0.0000 11.1679  3.4355  1.6721 2.09436  6.552 13.687 22.947 18.340  0.0000  0.0000  0.0000
 2015 178    53    52   2398 20.6413  0.0000 11.5300  3.7346  1.6273 1.11969  6.875 14.470 22.262 17.861  3.5414  2.6299 65.7367
 2015 179    54    53   2488 20.5134  0.4315 11.6283  4.4062  1.6759 0.25115  6.852 14.347 22.777 17.860  3.5413  2.6297 65.7369
 2015 180    55    54   2582 22.1089  0.4943 12.8264  4.6699  1.9542 0.12917  6.813 14.145 23.711 19.034  3.5560  2.7139 65.5608
 2015 181    56    55   2699 21.8658  0.0000  8.1074  2.4777  1.9944 7.07066  8.703 19.419 23.979 19.060  3.5605  2.7393 65.5073
 2015 182    57    56   2789 20.3832  0.0000 11.3342  3.6789  2.1553 1.12382  9.102 20.269 25.518 19.946  3.5712  2.7838 65.3964
 2015 183    58    57   2884 22.3001  0.8306 13.6951  4.6351  2.3275 0.00000  9.018 19.863 25.262 20.308  3.5797  2.8158 65.3111
 2015 184    59    58   2988 22.1170  0.0000 11.9415  3.6361  2.3354 2.18975  9.694 21.467 25.268 20.142  3.5832  2.8297 65.2755
 2015 185    60    59   3069 21.6284  0.9149 13.2923  4.4428  2.3471 0.00000  9.606 21.029 25.708 19.928  3.5839  2.8340 65.2667
 2015 186    61    60   3143 19.4418  0.8873 12.1983  3.9707  2.1843 0.00000  9.519 20.598 25.606 19.274  3.5811  2.8245 65.2938
 2015 187    62    61   3221 17.5224  0.8849 11.3796  3.4573  2.0822 0.00000  9.433 20.163 25.222 19.096  3.5784  2.8149 65.3200
 2015 188    63    62   3271 11.6008  0.8532  8.6166  1.9858  1.6076 0.00004  9.354 19.739 21.852 18.134  3.5736  2.7918 65.3734
 2015 189    64    63   3285  5.2003  0.7616  4.5796  0.5660  1.0912 0.00003  9.276 19.352 17.709 16.091  3.5692  2.7600 65.4325
 2015 190    65    64   3354 18.1910  0.8619 11.6061  3.7251  2.0142 0.00000  9.206 18.913 23.368 18.581  3.5842  2.7199 65.3788
 2015 191    66    65   3435 20.7661  0.4964 13.2874  3.6601  2.5266 0.11297  9.280 18.777 26.083 20.228  3.5578  2.7941 65.4700
 2015 192    67    66   3513 20.9898  0.9506 13.2602  4.0565  2.7098 0.00000  9.188 18.272 26.574 21.063  3.5631  2.8109 65.4194
 2015 193    68    67   3587 19.7306  0.9107 12.6345  3.8000  2.5012 0.00000  9.085 17.774 26.231 20.270  3.5650  2.8200 65.3986
 2015 194    69    68   3676 20.4284  0.0000 12.7355  3.2673  2.6578 0.30839  9.357 18.089 26.958 20.859  3.5372  2.8955 65.4972
 2015 195    70    69   3772 19.9529  0.7595 13.0508  3.5939  2.5667 0.06117  9.309 17.721 26.493 20.633  3.5323  2.9186 65.5042
 2015 196    71    70   3862 19.6330  0.9322 12.6061  3.7735  2.5475 0.00000  9.173 17.182 26.664 20.562  3.5378  2.9176 65.4714
 2015 197    72    71   3944 19.0250  0.9130 12.4336  3.6628  2.3532 0.00000  9.031 16.644 25.114 20.010  3.5417  2.9125 65.4516
 2015 198    73    72   4042 18.5681  0.0000 11.2878  3.0325  2.1966 0.88972  9.453 17.461 24.498 19.358  3.5393  2.9137 65.4655
 2015 199    74    73   4120 17.4717  0.9009 11.5160  3.4362  1.9920 0.00000  9.290 16.912 23.513 18.579  3.5404  2.9007 65.4719
 2015 200    75    74   4207 18.0625  0.9097 11.8454  3.5333  2.1500 0.00000  9.119 16.346 24.085 19.460  3.5426  2.8947 65.4643
 2015 201    76    75   4286 19.0667  0.9224 12.2192  3.7185  2.4703 0.00000  8.935 15.757 25.988 20.809  3.5466  2.8957 65.4380
 2015 202    77    76   4375 17.9670  0.4714 11.4100  3.2630  2.3749 0.16024  8.957 15.616 25.828 20.718  3.5470  2.9026 65.4286
 2015 203    78    77   4414 10.2982  0.9158  7.5833  1.3647  2.1672 0.00867  8.797 15.024 26.631 22.071  3.5426  2.9220 65.4368
 2015 204    79    78   4448  9.8343  0.9380  7.1883  1.2609  2.2947 0.00426  8.613 14.395 27.045 23.244  3.5411  2.9380 65.4303
 2015 205    80    79   4535 17.3818  0.1917 10.5877  3.0717  2.3592 0.25332  8.748 14.528 25.925 21.155  3.5380  2.9517 65.4358
 2015 206    81    80   4619 17.1657  0.4826 10.5498  3.0783  2.5614 0.16043  8.730 14.355 26.814 22.389  3.5364  2.9676 65.4296
 2015 207    82    81   4649 16.7501  0.2210  9.9482  2.9665  2.5762 0.25976  8.853 14.345 27.224 22.625  3.5383  2.9757 65.4101
 2015 208    83    82   4647 10.3551  0.6397  6.7903  1.4147  2.1052 0.09197  8.715 13.842 27.393 22.169  3.5238  3.0119 65.4644
 2015 209    84    83   4697 11.1691  0.7219  7.0916  1.9099  1.9850 0.03209  8.471 13.300 26.999 21.220  3.5158  3.0319 65.4947
 2015 210    85    84   4759 12.9418  0.7899  7.7653  2.2374  2.1675 0.50635  8.304 13.152 27.541 21.829  3.5125  3.0432 65.5034
 2015 211    86    85   4836 12.8690  0.0000  4.4261  0.8692  2.1548 4.55115  9.964 17.830 26.700 22.026  3.5040  3.0641 65.5357
 2015 212    87    86   4720  7.6925  1.0072  4.2768  0.9309  1.8435 1.10359  9.659 17.586 26.971 21.671  3.5016  3.0700 65.5447
 2015 213    88    87   4629  5.8663  0.8896  2.9594  0.7578  1.6343 0.88963  9.318 17.326 26.549 21.386  3.5012  3.0714 65.5464
 2015 214    89    88   4551  3.7650  0.7859  1.4989  0.5606  1.3925 0.62335  8.917 16.945 26.150 20.604  3.5012  3.0714 65.5464
 2015 215    90    89   4494  3.6695  0.7420  1.4092  0.5303  1.4640 0.58154  8.494 16.594 26.623 21.768  3.5012  3.0714 65.5464
 2015 216    91    90   4446  2.7325  0.6961  0.8570  0.4380  1.4169 0.35466  8.027 16.062 26.990 22.064  3.5012  3.0714 65.5464
 2015 217    92    91   4408  2.4491  0.6572  0.7279  0.3507  1.4489 0.29992  7.558 15.522 27.441 22.791  3.5012  3.0714 65.5464
 2015 218    93    92   4378  2.2040  0.6148  0.6207  0.2947  1.4200 0.25411  7.096 14.982 27.526 22.840  3.5012  3.0714 65.5464
 2015 219    94    93   4353  2.0476  0.5831  0.5260  0.2480  1.4544 0.21373  6.640 14.435 28.175 23.383  3.5012  3.0714 65.5464
 2015 220    95    94   4330  1.4941  0.5261  0.3514  0.1637  1.2451 0.14082  6.211 13.866 27.413 21.542  3.5012  3.0714 65.5464

*DSSAT Cropping System Model Ver. 4.7.5.007 -  MAR 01, 2026 21:19:28
@YEAR DOY   DAS   DAP   TWAD    PHAD    CMAD    CGRD    GRAD    MRAD    CHAD   CL%D   CS%D   TGNN   TGAV    GN%D    GL%D    GC%D
 2015 148     1     0      0  0.0000  0.0000  0.0000  0.0000  0.0000 0.00000  0.000  0.000 24.782 19.436  0.0000  0.0000  0.0000
 2015 149     2     1      0  0.0000  0.0000  0.0000  0.0000  0.0000 0.00000  0.000  0.000 24.034 18.242  0.0000  0.0000  0.0000
 2015 150     3     2      0  0.0000  0.0000  0.0000  0.0000  0.0000 0.00000  0.000  0.000 25.605 19.400  0.0000  0.0000  0.0000
 2015 151     4     3      0  0.0000  0.0000  0.0000  0.0000  0.0000 0.00000  0.000  0.000 27.170 20.725  0.0000  0.0000  0.0000
 2015 152     5     4     37  0.0000  0.0035  0.0024  0.0007  0.0000 0.00000  3.921  7.836 26.350 20.424  0.0000  0.0000  0.0000
 2015 153     6     5     39  0.4823  0.0038  0.2927  0.0902  0.0462 0.00000  3.856  7.668 26.412 22.244  0.0000  0.0000  0.0000
 2015 154     7     6     42  0.5600  0.0039  0.3423  0.1098  0.0490 0.00000  3.804  7.522 25.524 21.563  0.0000  0.0000  0.0000
 2015 155     8     7     47  0.6783  0.0039  0.5085  0.1109  0.0537 0.00000  3.782  7.402 24.884 20.855  0.0000  0.0000  0.0000
 2015 156     9     8     51  0.7968  0.0042  0.4568  0.1711  0.0618 0.00000  3.731  7.310 24.883 20.854  0.0000  0.0000  0.0000
 2015 157    10     9     56  0.9457  0.0046  0.5854  0.1864  0.0740 0.00000  3.692  7.268 25.486 21.287  0.0000  0.0000  0.0000
 2015 158    11    10     62  1.0872  0.0051  0.6791  0.2108  0.0846 0.00000  3.654  7.265 25.461 21.400  0.0000  0.0000  0.0000
 2015 159    12    11     69  1.1908  0.0055  0.7332  0.2459  0.0895 0.00000  3.641  7.203 25.437 20.791  0.0000  0.0000  0.0000
 2015 160    13    12     77  1.3654  0.0060  0.9102  0.2547  0.1017 0.00000  3.655  7.113 25.621 20.770  0.0000  0.0000  0.0000
 2015 161    14    13     85  1.3759  0.0066  0.8208  0.2991  0.1037 0.00000  3.629  7.067 24.986 20.617  0.0000  0.0000  0.0000
 2015 162    15    14     95  1.8319  0.0075  1.1225  0.3895  0.1399 0.00000  3.618  7.046 25.885 21.516  0.0000  0.0000  0.0000
 2015 163    16    15    107  2.1006  0.0087  1.2864  0.3911  0.1628 0.00000  3.606  7.030 25.626 21.877  0.0000  0.0000  0.0000
 2015 164    17    16    119  2.2268  0.0093  1.2849  0.4085  0.1694 0.00000  3.568  6.918 26.036 21.221  0.0000  0.0000  0.0000
 2015 165    18    17    130  1.9486  0.0101  1.2652  0.3385  0.1578 0.00000  3.571  6.820 26.021 21.000  0.0000  0.0000  0.0000
 2015 166    19    18    146  2.8384  0.0114  1.6587  0.5626  0.2226 0.00000  3.563  6.840 26.448 21.840  0.0000  0.0000  0.0000
 2015 167    20    19    164  3.1669  0.0125  1.9422  0.6066  0.2404 0.00000  3.561  6.870 26.152 21.373  0.0000  0.0000  0.0000
 2015 168    21    20    183  3.6112  0.0146  2.2097  0.6928  0.2831 0.00000  3.556  6.780 26.219 21.921  0.0000  0.0000  0.0000
 2015 169    22    21    203  4.3269  0.0161  2.6143  0.8301  0.3291 0.00000  3.548  6.509 26.223 21.753  0.0000  0.0000  0.0000
 2015 170    23    22    228  4.5789  0.0169  2.6734  0.8995  0.3272 0.00000  3.522  6.515 24.951 20.894  0.0000  0.0000  0.0000
 2015 171    24    23    243  2.8734  0.0165  1.6216  0.5796  0.2112 0.00000  3.478  6.444 23.346 18.739  0.0000  0.0000  0.0000
 2015 172    25    24    257  2.6968  0.0180  1.5024  0.5535  0.2134 0.00000  3.430  6.358 22.489 19.223  0.0000  0.0000  0.0000
 2015 173    26    25    279  4.0475  0.0186  2.4669  0.8509  0.2824 0.00000  3.436  6.317 23.684 19.146  0.0000  0.0000  0.0000
 2015 174    27    26    310  5.5061  0.0214  3.3469  1.2203  0.3813 0.00000  3.456  6.378 24.070 20.048  0.0000  0.0000  0.0000
 2015 175    28    27    332  5.7511  0.0225  3.6025  1.2077  0.3810 0.00000  3.459  6.140 23.703 19.200  0.0000  0.0000  0.0000
 2015 176    29    28    353  6.3875  0.0239  4.0030  1.3304  0.4206 0.00000  3.464  5.872 24.137 19.152  0.0000  0.0000  0.0000
 2015 177    30    29    386  6.3355  0.0000  4.0820  0.9881  0.3946 0.36272  4.789  7.021 22.947 18.340  0.0000  0.0000  0.0000
 2015 178    31    30    425  6.6886  0.0319  3.9186  1.5038  0.4021 0.00000  4.617  7.056 22.262 17.861  0.0000  0.0000  0.0000
 2015 179    32    31    466  7.2760  0.0347  3.9847  1.7129  0.4441 0.00000  4.464  7.071 22.777 17.860  0.0000  0.0000  0.0000
 2015 180    33    32    518  8.7219  0.0411  5.3257  1.8820  0.5700 0.00000  4.337  7.092 23.711 19.034  0.0000  0.0000  0.0000
 2015 181    34    33    579  9.5495  0.0000  5.9495  1.3822  0.6316 0.82501  6.171  8.703 23.979 19.060  0.0000  0.0000  0.0000
 2015 182    35    34    639 10.3818  0.0700  6.5757  2.1500  0.7567 0.00000  5.883  8.456 25.518 19.946  0.0000  0.0000  0.0000
 2015 183    36    35    694 11.6910  0.0775  5.7403  2.5773  0.8612 0.00000  5.622  8.248 25.262 20.308  0.0000  0.0000  0.0000
 2015 184    37    36    753 12.5374  0.0810  8.9151  2.2336  0.9180 0.00000  5.615  8.069 25.268 20.142  0.0000  0.0000  0.0000
 2015 185    38    37    811 13.0012  0.0856  7.1867  2.7616  0.9624 0.00000  5.488  7.917 25.708 19.928  0.0000  0.0000  0.0000
 2015 186    39    38    863 12.5646  0.0868  7.7604  2.4349  0.9274 0.00000  5.464  7.789 25.606 19.274  0.0000  0.0000  0.0000
 2015 187    40    39    912 12.1465  0.0916  7.5041  2.3404  0.9110 0.00000  5.446  7.674 25.222 19.096  0.0000  0.0000  0.0000
 2015 188    41    40    941  8.8251  0.0911  5.4416  1.7301  0.6791 0.00000  5.468  7.563 21.852 18.134  0.0000  0.0000  0.0000
 2015 189    42    41    950  4.2209  0.0793  2.5399  0.8498  0.4018 0.00000  5.460  7.463 17.709 16.091  0.0000  0.0000  0.0000
 2015 190    43    42   1028 13.7637  0.0975  8.5936  2.7348  0.9476 0.00000  5.303  7.398 23.368 18.581  0.0000  0.0000  0.0000
 2015 191    44    43   1107 14.8087  0.1143 10.6193  2.3478  1.2000 0.00000  5.304  7.293 26.083 20.228  0.0000  0.0000  0.0000
 2015 192    45    44   1202 17.3273  0.1276  9.9205  3.6237  1.4454 0.05754  5.136  7.333 26.574 21.063  0.0000  0.0000  0.0000
 2015 193    46    45   1287 17.4248  0.1311 10.3568  3.5133  1.4169 0.15563  5.134  7.504 26.231 20.270  0.0000  0.0000  0.0000
 2015 194    47    46   1389 18.9262  0.1468 13.3837  2.9875  1.6088 0.33268  5.263  7.877 26.958 20.859  0.0000  0.0000  0.0000
 2015 195    48    47   1479 19.4430  0.1640 11.2562  3.8960  1.6458 0.39089  5.279  8.190 26.493 20.633  0.0000  0.0000  0.0000
 2015 196    49    48   1589 19.9789  0.1781 11.4945  3.9711  1.7138 0.51450  5.319  8.627 26.664 20.562  0.0000  0.0000  0.0000
 2015 197    50    49   1686 20.4269  0.1964 11.5661  4.1931  1.6738 0.58449  5.447  9.056 25.114 20.010  0.0000  0.0000  0.0000
 2015 198    51    50   1795 20.8912  0.2093 14.0444  3.4905  1.6469 0.78489  5.694  9.625 24.498 19.358  0.0000  0.0000  0.0000
 2015 199    52    51   1904 20.2530  0.2229 11.1977  4.3253  1.5475 0.61014  5.740  9.966 23.513 18.579  0.0000  0.0000  0.0000
 2015 200    53    52   2001 21.5737  0.2593 10.9004  4.9264  1.7639 0.57983  5.811 10.240 24.085 19.460  0.0000  0.0000  0.0000
 2015 201    54    53   2107 23.3544  0.3010 12.0175  5.2016  2.1293 0.66474  5.903 10.542 25.988 20.809  0.0000  0.0000  0.0000
 2015 202    55    54   2206 22.4675  0.3395 11.5804  5.0657  2.1128 0.57139  5.967 10.745 25.828 20.718  0.0000  0.0000  0.0000
 2015 203    56    55   2281 19.2682  0.4079  9.8123  4.3493  2.1973 0.26558  5.941 10.704 26.631 22.071  0.0000  0.0000  0.0000
 2015 204    57    56   2333 16.7716  0.0000  8.8251  2.6981  2.2658 1.25293  6.432 11.812 27.045 23.244  3.6895  2.9982 64.4423
 2015 205    58    57   2441 23.8899  0.4793 14.0836  4.9000  2.3560 0.16233  6.407 11.653 25.925 21.155  3.6361  2.9469 64.8272
 2015 206    59    58   2539 23.7683  0.5340 13.6373  5.0196  2.6292 0.00000  6.346 11.354 26.814 22.389  3.6478  2.9649 64.7365
 2015 207    60    59   2601 23.7267  0.5560 13.8167  4.9988  2.7324 0.00000  6.284 10.961 27.224 22.625  3.6553  2.9740 64.6804
 2015 208    61    60   2657 22.9317  0.0000 13.5439  4.3994  2.6503 0.20634  6.475 11.058 27.393 22.169  3.6542  2.9745 64.6868
 2015 209    62    61   2742 17.6047  0.0000  8.7616  2.0993  2.2245 3.58077  7.679 14.347 26.999 21.220  3.6455  2.9639 64.7515
 2015 210    63    62   2841 21.7760  0.0000 12.0092  3.3602  2.6090 2.29892  8.525 16.410 27.541 21.829  3.6444  2.9638 64.7587
 2015 211    64    63   2927 22.0434  0.8004 14.0433  4.3099  2.6669 0.00000  8.471 15.979 26.700 22.026  3.6449  2.9653 64.7538
 2015 212    65    64   3009 21.4485  0.7803 13.6579  4.1790  2.6301 0.00000  8.415 15.542 26.971 21.671  3.6433  2.9638 64.7654
 2015 213    66    65   3121 20.7532  0.0000 10.4306  2.3275  2.5670 4.41331  9.934 19.444 26.549 21.386  3.6267  2.9898 64.8432
 2015 214    67    66   3211 19.7690  0.0000 12.1851  3.2340  2.4296 0.82249 10.415 20.223 26.150 20.604  3.6238  2.9777 64.8739
 2015 215    68    67   3295 20.2238  1.0119 13.3362  3.8167  2.6602 0.00000 10.348 19.670 26.623 21.768  3.6256  2.9757 64.8645
 2015 216    69    68   3396 20.4718  0.0000 10.9623  2.4171  2.7334 3.36992 11.609 22.588 26.990 22.064  3.6098  3.0129 64.9259
 2015 217    70    69   3499 20.5200  0.0000 12.1020  3.0366  2.8695 1.55375 12.379 23.965 27.441 22.791  3.6163  3.0107 64.8877
 2015 218    71    70   3582 20.1734  0.9724 13.3132  3.6585  2.8557 0.10632 12.414 23.551 27.526 22.840  3.6217  3.0091 64.8555
 2015 219    72    71   3672 20.0337  1.1346 13.2104  3.6942  2.9538 0.05534 12.364 22.971 28.175 23.383  3.6280  3.0082 64.8171
 2015 220    73    72   3737 15.9583  0.4531 10.6033  2.3614  2.3812 0.28336 12.600 23.014 27.413 21.542  3.6031  3.0558 64.9246
 2015 221    74    73   3826 17.9838  0.0759 11.1503  3.0283  2.4813 0.42511 12.992 23.419 27.971 21.438  3.6049  3.0481 64.9212
 2015 222    75    74   3916 19.1554  0.6505 12.0859  3.4504  2.7789 0.24580 13.139 23.290 28.296 22.942  3.6097  3.0446 64.8946
 2015 223    76    75   3992 16.4041  0.7643 10.8315  2.7663  2.3473 0.19636 13.203 23.029 26.255 21.769  3.5982  3.0668 64.9442
 2015 224    77    76   4061 17.6966  0.2601 11.0090  3.0424  2.4215 0.38610 13.522 23.243 26.423 21.865  3.5975  3.0677 64.9481
 2015 225    78    77   4140 17.0153  1.0968 11.1959  3.2998  2.3096 0.07272 13.376 22.608 25.953 21.638  3.5995  3.0615 64.9415
 2015 226    79    78   4216 16.2748  1.2513 10.8597  3.2501  2.2018 0.00015 13.106 21.769 25.721 21.334  3.6008  3.0554 64.9395
 2015 227    80    79   4277 13.9388  0.6949  9.0322  2.0905  2.4498 0.22091 13.182 21.540 27.943 23.589  3.5859  3.0925 64.9955
 2015 228    81    80   4347 15.8597  0.6229  9.6933  2.9404  2.4014 0.22867 13.225 21.349 27.988 22.552  3.5891  3.0883 64.9800
 2015 229    82    81   4419 15.7867  1.2307  9.8836  3.1099  2.3020 0.32109 12.937 20.691 26.779 22.282  3.5914  3.0844 64.9691
 2015 230    83    82   4494 15.4631  1.1979  8.8744  2.7993  2.2904 1.20375 12.789 20.726 27.295 22.239  3.5928  3.0821 64.9630
 2015 231    84    83   4515 11.2704  1.3074  6.2329  1.3744  2.5884 1.64268 12.863 21.126 29.171 25.613  3.5940  3.0816 64.9560
 2015 232    85    84   4556  9.8454  1.2143  5.4239  1.0497  2.0817 1.88104 12.985 21.794 27.987 22.891  3.5941  3.0814 64.9553
 2015 233    86    85   4504 14.8956  1.2800  8.2645  1.5989  2.6858 3.02308 12.607 22.569 29.299 24.411  3.5943  3.0813 64.9543
 2015 234    87    86   4454 11.6750  1.2492  6.2183  1.4589  2.4155 2.16613 11.979 22.703 29.746 24.158  3.5945  3.0812 64.9535
 2015 235    88    87   4405  9.4647  1.2177  4.7063  1.3324  2.3052 1.57668 11.300 22.530 30.345 24.544  3.5947  3.0811 64.9521
 2015 236    89    88   4361  7.4680  1.1775  3.4917  1.1052  2.1939 1.18078 10.583 22.156 30.686 24.953  3.5949  3.0810 64.9508
 2015 237    90    89   4323  5.7424  1.1113  2.8365  0.6964  2.0028 0.95142  9.895 21.711 30.825 24.565  3.5951  3.0809 64.9499
 2015 238    91    90   4287  4.3571  1.0729  1.8252  0.6689  1.8808 0.61596  9.200 21.057 30.285 24.723  3.5952  3.0808 64.9492
 2015 239    92    91   4256  3.5016  0.9935  1.4343  0.6214  1.5456 0.47834  8.535 20.374 27.403 22.853  3.5953  3.0807 64.9489
 2015 240    93    92   4227  1.7917  0.8938  0.9777  0.1828  1.1553 0.30453  7.971 19.660 23.983 20.377  3.5953  3.0806 64.9491
 2015 241    94    93   4201  2.3578  0.9283  0.7802  0.2822  1.7560 0.27538  7.370 18.877 30.306 25.542  3.5953  3.0805 64.9487

*DSSAT Cropping System Model Ver. 4.7.5.007 -  MAR 01, 2026 21:19:28
@YEAR DOY   DAS   DAP   TWAD    PHAD    CMAD    CGRD    GRAD    MRAD    CHAD   CL%D   CS%D   TGNN   TGAV    GN%D    GL%D    GC%D
 2015 161     1     0      0  0.0000  0.0000  0.0000  0.0000  0.0000 0.00000  0.000  0.000 24.986 20.617  0.0000  0.0000  0.0000
 2015 162     2     1      0  0.0000  0.0000  0.0000  0.0000  0.0000 0.00000  0.000  0.000 25.885 21.516  0.0000  0.0000  0.0000
 2015 163     3     2      0  0.0000  0.0000  0.0000  0.0000  0.0000 0.00000  0.000  0.000 25.626 21.877  0.0000  0.0000  0.0000
 2015 164     4     3      0  0.0000  0.0000  0.0000  0.0000  0.0000 0.00000  0.000  0.000 26.036 21.221  0.0000  0.0000  0.0000
 2015 165     5     4     37  0.0000  0.0037  0.0025  0.0007  0.0000 0.00000  3.918  7.828 26.021 21.000  0.0000  0.0000  0.0000
 2015 166     6     5     39  0.4711  0.0037  0.2864  0.0868  0.0444 0.00000  3.855  7.665 26.448 21.840  0.0000  0.0000  0.0000
 2015 167     7     6     42  0.5414  0.0038  0.3307  0.1008  0.0479 0.00000  3.803  7.522 26.152 21.373  0.0000  0.0000  0.0000
 2015 168     8     7     45  0.6277  0.0041  0.3828  0.1178  0.0558 0.00000  3.757  7.391 26.219 21.921  0.0000  0.0000  0.0000
 2015 169     9     8     50  0.7830  0.0043  0.4821  0.1466  0.0654 0.00000  3.718  7.302 26.223 21.753  0.0000  0.0000  0.0000
 2015 170    10     9     55  0.8967  0.0044  0.6417  0.1510  0.0685 0.00000  3.731  7.271 24.951 20.894  0.0000  0.0000  0.0000
 2015 171    11    10     60  0.8992  0.0042  0.5433  0.1754  0.0599 0.00000  3.691  7.255 23.346 18.739  0.0000  0.0000  0.0000
 2015 172    12    11     66  1.0666  0.0048  0.6645  0.2081  0.0704 0.00000  3.668  7.225 22.489 19.223  0.0000  0.0000  0.0000
 2015 173    13    12     73  1.1817  0.0052  0.7329  0.2357  0.0790 0.00000  3.653  7.176 23.684 19.146  0.0000  0.0000  0.0000
 2015 174    14    13     81  1.4744  0.0061  0.8930  0.2936  0.1014 0.00000  3.633  7.121 24.070 20.048  0.0000  0.0000  0.0000
 2015 175    15    14     90  1.5105  0.0064  0.9910  0.3070  0.1001 0.00000  3.664  7.090 23.703 19.200  0.0000  0.0000  0.0000
 2015 176    16    15    101  1.8072  0.0071  1.2133  0.3424  0.1175 0.00000  3.693  7.077 24.137 19.152  0.0000  0.0000  0.0000
 2015 177    17    16    112  1.9179  0.0075  1.2456  0.3949  0.1172 0.00000  3.713  7.065 22.947 18.340  0.0000  0.0000  0.0000
 2015 178    18    17    125  2.1338  0.0080  1.4044  0.4187  0.1244 0.00000  3.731  7.063 22.262 17.861  0.0000  0.0000  0.0000
 2015 179    19    18    138  2.3839  0.0090  1.3081  0.5368  0.1403 0.00000  3.683  7.054 22.777 17.860  0.0000  0.0000  0.0000
 2015 180    20    19    154  2.9292  0.0108  1.6959  0.6082  0.1841 0.00000  3.645  7.007 23.711 19.034  0.0000  0.0000  0.0000
 2015 181    21    20    172  2.9358  0.0120  1.9908  0.5466  0.1922 0.00000  3.654  6.951 23.979 19.060  0.0000  0.0000  0.0000
 2015 182    22    21    192  3.4877  0.0140  2.2500  0.7044  0.2445 0.00000  3.679  6.962 25.518 19.946  0.0000  0.0000  0.0000
 2015 183    23    22    218  4.1146  0.0000  2.7303  0.6393  0.2887 0.11021  4.411  7.646 25.262 20.308  0.0000  0.0000  0.0000
 2015 184    24    23    244  4.6441  0.0207  2.9901  0.8422  0.3230 0.00000  4.321  7.541 25.268 20.142  0.0000  0.0000  0.0000
 2015 185    25    24    270  5.1821  0.0225  2.6597  1.0611  0.3596 0.00000  4.148  7.375 25.708 19.928  0.0000  0.0000  0.0000
 2015 186    26    25    301  5.2778  0.0231  3.0717  1.0211  0.3606 0.00000  4.051  7.324 25.606 19.274  0.0000  0.0000  0.0000
 2015 187    27    26    335  5.5624  0.0000  3.8112  0.8790  0.3790 0.03358  4.213  7.520 25.222 19.096  0.0000  0.0000  0.0000
 2015 188    28    27    361  4.4098  0.0276  2.7127  0.8409  0.2968 0.00000  4.130  7.454 21.852 18.134  0.0000  0.0000  0.0000
 2015 189    29    28    371  2.3193  0.0250  0.8524  0.5666  0.1768 0.00000  4.038  7.369 17.709 16.091  0.0000  0.0000  0.0000
 2015 190    30    29    413  7.1072  0.0309  4.2960  1.3357  0.4444 0.00000  3.962  7.348 23.368 18.581  0.0000  0.0000  0.0000
 2015 191    31    30    470  8.8927  0.0000  5.1755  1.1399  0.6308 1.15472  7.009  9.871 26.083 20.228  0.0000  0.0000  0.0000
 2015 192    32    31    522  9.8376  0.0696  6.3354  1.7523  0.7463 0.00000  6.692  9.413 26.574 21.063  0.0000  0.0000  0.0000
 2015 193    33    32    571 10.1616  0.0711  5.2303  2.0751  0.7469 0.00000  6.363  9.073 26.231 20.270  0.0000  0.0000  0.0000
 2015 194    34    33    628 11.4675  0.0772  7.9169  1.9867  0.8776 0.00000  6.305  8.803 26.958 20.859  0.0000  0.0000  0.0000
 2015 195    35    34    687 11.8108  0.0821  6.8419  2.3716  0.9015 0.00000  6.056  8.544 26.493 20.633  0.0000  0.0000  0.0000
 2015 196    36    35    744 12.6232  0.0867  7.6748  2.3922  0.9702 0.00000  5.929  8.325 26.664 20.562  0.0000  0.0000  0.0000
 2015 197    37    36    803 13.2171  0.0915  8.4326  2.5839  0.9620 0.00000  5.912  8.143 25.114 20.010  0.0000  0.0000  0.0000
 2015 198    38    37    869 13.3625  0.0934  8.0335  2.7233  0.9420 0.00000  5.749  7.986 24.498 19.358  0.0000  0.0000  0.0000
 2015 199    39    38    928 13.5445  0.0941  8.3773  2.6415  0.9100 0.00000  5.694  7.854 23.513 18.579  0.0000  0.0000  0.0000
 2015 200    40    39    993 14.9039  0.1064  9.0361  2.9043  1.0622 0.00000  5.656  7.724 24.085 19.460  0.0000  0.0000  0.0000
 2015 201    41    40   1045 12.9454  0.1212  7.4620  2.7175  1.1271 0.00000  5.636  7.576 25.988 20.809  0.0000  0.0000  0.0000
 2015 202    42    41   1126 15.9588  0.1246  9.8458  3.2193  1.2966 0.00000  5.484  7.478 25.828 20.718  0.0000  0.0000  0.0000
 2015 203    43    42   1217 18.3547  0.1431 11.2694  3.6151  1.6069 0.00000  5.354  7.385 26.631 22.071  0.0000  0.0000  0.0000
 2015 204    44    43   1308 19.2637  0.1635 12.8722  3.4200  1.8454 0.00000  5.342  7.272 27.045 23.244  0.0000  0.0000  0.0000
 2015 205    45    44   1389 19.3772  0.1550 11.4314  4.0887  1.6391 0.04728  5.165  7.175 25.925 21.155  0.0000  0.0000  0.0000
 2015 206    46    45   1506 20.3129  0.1730 12.1726  4.0867  1.8918 0.17854  5.045  7.346 26.814 22.389  0.0000  0.0000  0.0000
 2015 207    47    46   1617 21.5895  0.1902 12.7745  4.3464  2.0679 0.32594  5.057  7.639 27.224 22.625  0.0000  0.0000  0.0000
 2015 208    48    47   1723 22.7232  0.2029 14.4011  4.1164  2.1388 0.53867  5.254  8.097 27.393 22.169  0.0000  0.0000  0.0000
 2015 209    49    48   1818 18.1319  0.2140 10.0411  3.8755  1.8084 0.45895  5.253  8.409 26.999 21.220  0.0000  0.0000  0.0000
 2015 210    50    49   1934 23.5967  0.2384 13.3745  4.8391  2.2518 0.71047  5.373  8.892 27.541 21.829  0.0000  0.0000  0.0000
 2015 211    51    50   2049 24.6733  0.2740 13.7255  5.1539  2.3648 0.79170  5.514  9.360 26.700 22.026  0.0000  0.0000  0.0000
 2015 212    52    51   2171 24.9080  0.2958 15.7996  4.1802  2.3942 1.00836  5.799  9.983 26.971 21.671  0.0000  0.0000  0.0000
 2015 213    53    52   2295 24.5410  0.3265 12.9159  5.4159  2.3735 0.72405  5.824 10.294 26.549 21.386  0.0000  0.0000  0.0000
 2015 214    54    53   2410 24.5644  0.3377 12.7442  5.5352  2.3040 0.67968  5.875 10.556 26.150 20.604  0.0000  0.0000  0.0000
 2015 215    55    54   2518 25.3405  0.4162 13.1895  5.8058  2.5944 0.61548  5.922 10.729 26.623 21.768  3.6387  2.9609 64.7972
 2015 216    56    55   2641 26.3996  0.0000 10.5260  3.5134  2.7727 6.61131  7.716 15.661 26.990 22.064  3.6465  2.9701 64.7395
 2015 217    57    56   2755 25.6756  0.0000 13.1127  4.6579  2.9401 1.98793  8.325 17.117 27.441 22.791  3.6632  2.9837 64.6216
 2015 218    58    57   2857 26.3483  0.8026 14.9336  5.7076  3.0532 0.00000  8.254 16.732 27.526 22.840  3.6689  2.9882 64.5809
 2015 219    59    58   2969 26.3838  0.2100 15.2665  5.1936  3.2432 0.10641  8.379 16.752 28.175 23.383  3.6795  2.9927 64.5102
 2015 220    60    59   3104 24.7638  0.0000 10.4199  2.8807  2.8374 6.63323 10.115 21.375 27.413 21.542  3.6637  2.9789 64.6228
 2015 221    61    60   3208 23.7153  0.0000 14.1842  4.3953  2.8604 0.21045 10.362 21.600 27.971 21.438  3.6540  2.9698 64.6928
 2015 222    62    61   3321 26.2405  0.2721 15.9097  4.8874  3.3459 0.18666 10.564 21.682 28.296 22.942  3.6602  2.9761 64.6477
 2015 223    63    62   3422 22.1136  0.0000 12.0590  2.8832  2.8432 3.27478 11.562 23.935 26.255 21.769  3.6551  2.9725 64.6830
 2015 224    64    63   3543 24.4309  0.0000 14.6096  3.9078  3.0470 1.41212 12.169 24.964 26.423 21.865  3.6525  2.9710 64.7010
 2015 225    65    64   3636 23.9757  1.3916 15.8849  4.6131  3.0155 0.00000 12.110 24.384 25.953 21.638  3.6495  2.9684 64.7221
 2015 226    66    65   3725 22.9513  1.3644 15.4209  4.3278  2.9355 0.00000 12.045 23.797 25.721 21.334  3.6460  2.9644 64.7481
 2015 227    67    66   3836 24.2583  0.0000 13.8263  3.3509  3.5906 2.37725 12.949 25.509 27.943 23.589  3.6534  2.9690 64.6974
 2015 228    68    67   3922 22.4756  1.5049 15.0928  4.1188  3.2592 0.03196 12.872 24.860 27.988 22.552  3.6547  2.9710 64.6873
 2015 229    69    68   4017 22.6907  1.4885 15.0429  4.3048  3.1417 0.00000 12.782 24.183 26.779 22.282  3.6548  2.9719 64.6858
 2015 230    70    69   4119 22.3804  0.0000 13.8269  3.5409  3.1262 0.76219 13.310 24.830 27.295 22.239  3.6547  2.9725 64.6857
 2015 231    71    70   4205 23.0976  1.6688 15.2085  4.1329  3.9579 0.06054 13.210 24.070 29.171 25.613  3.6660  2.9750 64.6126
 2015 232    72    71   4295 21.6071  1.5039 14.3083  4.0713  3.1938 0.02365 13.072 23.334 27.987 22.891  3.6669  2.9765 64.6056
 2015 233    73    72   4386 22.0927  1.5236 14.4908  4.0410  3.5648 0.12333 12.941 22.619 29.299 24.411  3.6720  2.9783 64.5719
 2015 234    74    73   4484 20.7502  0.0000 12.4318  3.1068  3.4199 0.68424 13.470 23.235 29.746 24.158  3.6632  3.0050 64.6002
 2015 235    75    74   4574 21.1069  0.7627 13.0324  3.6864  3.5321 0.29280 13.627 23.102 30.345 24.544  3.6679  3.0047 64.5709
 2015 236    76    75   4666 20.5196  0.7161 12.5694  3.5520  3.5649 0.31779 13.798 23.008 30.686 24.953  3.6730  3.0044 64.5392
 2015 237    77    76   4753 19.5040  0.7142 11.8942  3.3744  3.4040 0.31450 13.946 22.903 30.825 24.565  3.6762  3.0050 64.5189
 2015 238    78    77   4828 18.2999  1.0191 11.4171  3.2333  3.2976 0.20998 13.941 22.511 30.285 24.723  3.6782  3.0076 64.5038
 2015 239    79    78   4909 18.3477  1.5101 12.0798  3.5594  2.8163 0.00029 13.642 21.622 27.403 22.853  3.6757  3.0117 64.5151
 2015 240    80    79   4954 11.2634  1.3607  7.9244  2.0970  1.9172 0.00607 13.341 20.798 23.983 20.377  3.6741  3.0060 64.5310
 2015 241    81    80   5032 18.9389  1.4674 11.3795  3.3804  3.4198 0.64289 13.089 20.286 30.306 25.542  3.6743  3.0127 64.5228
 2015 242    82    81   5119 19.0208  1.4561  9.8846  3.0489  3.4238 2.16113 12.997 20.703 30.198 25.608  3.6715  3.0217 64.5312
 2015 243    83    82   5204 19.2691  1.5094  9.6486  2.7675  3.6708 2.83509 13.028 21.426 30.825 26.478  3.6689  3.0296 64.5399
 2015 244    84    83   5312 19.1939  1.3802 10.2589  1.5115  3.4751 4.23949 13.460 23.168 30.414 25.434  3.6667  3.0343 64.5485
 2015 245    85    84   5240 18.4797  1.7625 10.0958  1.7243  3.7283 4.02703 13.079 23.853 31.969 26.286  3.6662  3.0355 64.5507
 2015 246    86    85   5180 14.9155  1.7009  8.0244  1.6258  3.1435 3.14138 12.459 24.051 30.857 25.137  3.6656  3.0368 64.5530
 2015 247    87    86   5130 11.6963  1.6441  6.5184  1.0940  2.8191 2.56365 11.833 24.114 31.067 24.747  3.6657  3.0368 64.5527
 2015 248    88    87   5077  9.2037  1.6553  4.7180  0.9985  2.8466 1.81763 11.073 23.760 31.690 26.210  3.6657  3.0368 64.5524
 2015 249    89    88   5022  6.9109  1.5836  3.0497  1.0030  2.6213 1.15770 10.307 23.134 31.921 26.089  3.6658  3.0367 64.5520
 2015 250    90    89   4980  5.4869  1.4949  2.9055  0.4571  2.3575 1.09857  9.588 22.574 30.917 25.469  3.6659  3.0367 64.5517
 2015 251    91    90   4940  4.2019  1.3893  2.1245  0.4358  1.9515 0.82880  8.915 21.950 28.957 23.577  3.6659  3.0367 64.5517
 2015 252    92    91   4895  1.4954  1.2692  0.8425  0.1443  1.3815 0.32290  8.325 21.107 24.179 20.873  3.6659  3.0367 64.5517
 2015 253    93    92   4860  2.5877  1.3015  0.9627  0.2433  2.0880 0.37113  7.693 20.260 30.446 25.836  3.6659  3.0367 64.5516

*DSSAT Cropping System Model Ver. 4.7.5.007 -  MAR 01, 2026 21:19:28
@YEAR DOY   DAS   DAP   TWAD    PHAD    CMAD    CGRD    GRAD    MRAD    CHAD   CL%D   CS%D   TGNN   TGAV    GN%D    GL%D    GC%D
 2016 132     1     0      0  0.0000  0.0000  0.0000  0.0000  0.0000 0.00000  0.000  0.000 28.189 23.476  0.0000  0.0000  0.0000
 2016 133     2     1      0  0.0000  0.0000  0.0000  0.0000  0.0000 0.00000  0.000  0.000 28.601 23.543  0.0000  0.0000  0.0000
 2016 134     3     2      0  0.0000  0.0000  0.0000  0.0000  0.0000 0.00000  0.000  0.000 28.886 24.557  0.0000  0.0000  0.0000
 2016 135     4     3      0  0.0000  0.0000  0.0000  0.0000  0.0000 0.00000  0.000  0.000 28.812 24.727  0.0000  0.0000  0.0000
 2016 136     5     4     37  0.0000  0.0045  0.0030  0.0009  0.0000 0.00000  3.900  7.791 26.475 24.191  0.0000  0.0000  0.0000
 2016 137     6     5     39  0.4478  0.0041  0.2863  0.0785  0.0500 0.00000  3.845  7.610 27.504 23.975  0.0000  0.0000  0.0000
 2016 138     7     6     42  0.6017  0.0041  0.3411  0.1146  0.0582 0.00000  3.778  7.457 27.115 23.242  0.0000  0.0000  0.0000
 2016 139     8     7     45  0.6807  0.0044  0.4097  0.1275  0.0650 0.00000  3.731  7.324 26.836 23.379  0.0000  0.0000  0.0000
 2016 140     9     8     50  0.9088  0.0047  0.5512  0.1680  0.0881 0.00000  3.690  7.252 28.918 24.321  0.0000  0.0000  0.0000
 2016 141    10     9     57  1.0336  0.0053  0.7245  0.1692  0.1011 0.00000  3.701  7.240 28.276 24.717  0.0000  0.0000  0.0000
 2016 142    11    10     62  1.1108  0.0057  0.6324  0.2251  0.1022 0.00000  3.661  7.158 27.755 23.610  0.0000  0.0000  0.0000
 2016 143    12    11     70  1.4078  0.0063  0.8484  0.2766  0.1254 0.00000  3.640  7.105 27.371 23.814  0.0000  0.0000  0.0000
 2016 144    13    12     78  1.3156  0.0061  0.8067  0.2650  0.0973 0.00000  3.620  7.065 23.538 20.845  0.0000  0.0000  0.0000
 2016 145    14    13     89  1.8484  0.0069  1.2038  0.3811  0.1373 0.00000  3.660  7.056 25.960 21.473  0.0000  0.0000  0.0000
 2016 146    15    14    101  2.2326  0.0083  1.3981  0.4593  0.1769 0.00000  3.674  7.052 27.207 22.446  0.0000  0.0000  0.0000
 2016 147    16    15    116  2.5898  0.0102  1.5170  0.5533  0.2208 0.00000  3.643  7.041 27.369 23.643  0.0000  0.0000  0.0000
 2016 148    17    16    134  3.0592  0.0105  2.0328  0.6148  0.2281 0.00000  3.673  7.039 26.708 21.776  0.0000  0.0000  0.0000
 2016 149    18    17    155  3.6494  0.0133  2.2844  0.7490  0.3027 0.00000  3.688  7.035 27.663 23.388  0.0000  0.0000  0.0000
 2016 150    19    18    178  3.9579  0.0147  2.4846  0.8207  0.3016 0.00000  3.694  7.045 26.174 22.107  0.0000  0.0000  0.0000
 2016 151    20    19    209  4.7648  0.0167  3.3958  0.8962  0.3611 0.00000  3.719  7.063 26.981 22.019  0.0000  0.0000  0.0000
 2016 152    21    20    244  5.6889  0.0207  3.7275  1.1527  0.4628 0.00000  3.734  7.070 27.855 23.031  0.0000  0.0000  0.0000
 2016 153    22    21    285  6.7038  0.0000  4.3117  1.0783  0.5756 0.20447  4.669  7.933 28.820 23.756  0.0000  0.0000  0.0000
 2016 154    23    22    324  6.6964  0.0329  4.2390  1.2675  0.5472 0.00000  4.545  7.795 27.494 22.569  0.0000  0.0000  0.0000
 2016 155    24    23    374  7.7058  0.0359  5.4079  1.4088  0.5949 0.00000  4.433  7.693 26.854 21.861  0.0000  0.0000  0.0000
 2016 156    25    24    427  9.1579  0.0448  5.7639  1.7379  0.7847 0.00000  4.333  7.591 27.688 23.488  0.0000  0.0000  0.0000
 2016 157    26    25    490 10.8564  0.0524  6.5544  1.9938  1.0000 0.00000  4.209  7.495 29.159 24.546  0.0000  0.0000  0.0000
 2016 158    27    26    552 11.9546  0.0566  6.1238  2.4461  1.0564 0.00000  4.079  7.410 29.040 23.671  0.0000  0.0000  0.0000
 2016 159    28    27    607 12.2896  0.0644  8.1791  2.3453  1.0663 0.00000  4.205  7.329 27.068 23.386  0.0000  0.0000  0.0000
 2016 160    29    28    670 12.7153  0.0686  7.9718  2.4647  1.0270 0.00000  4.210  7.269 25.762 22.253  0.0000  0.0000  0.0000
 2016 161    30    29    740 13.2807  0.0666  9.2230  2.4977  0.9217 0.00000  4.268  7.235 24.386 20.017  0.0000  0.0000  0.0000
 2016 162    31    30    809 15.1217  0.0915  9.7009  2.7726  1.3839 0.00000  4.324  7.171 27.155 23.819  0.0000  0.0000  0.0000
 2016 163    32    31    875 14.9484  0.0822  7.9929  3.2280  1.0502 0.00000  4.304  7.126 23.684 20.038  0.0000  0.0000  0.0000
 2016 164    33    32    934 13.9467  0.0777  8.7024  2.7116  0.8806 0.00000  4.375  7.093 22.359 18.129  0.0000  0.0000  0.0000
 2016 165    34    33    996 14.5079  0.0874  9.0000  2.7811  1.0223 0.00000  4.430  7.058 24.911 18.790  0.0000  0.0000  0.0000
 2016 166    35    34   1079 16.3760  0.1077 10.0969  3.1745  1.2881 0.00000  4.397  7.022 25.410 20.734  0.0000  0.0000  0.0000
 2016 167    36    35   1171 18.2580  0.1239 11.8858  3.5196  1.5213 0.00000  4.402  6.988 25.752 21.695  0.0000  0.0000  0.0000
 2016 168    37    36   1268 18.9034  0.1283 12.3583  3.6983  1.5069 0.00000  4.402  6.960 25.385 20.847  0.0000  0.0000  0.0000
 2016 169    38    37   1374 19.3258  0.1355 11.5953  4.0446  1.5522 0.00000  4.323  6.932 25.785 20.524  0.0000  0.0000  0.0000
 2016 170    39    38   1472 20.4426  0.1497 13.3429  3.9330  1.7429 0.00000  4.357  6.900 26.632 21.097  0.0000  0.0000  0.0000
 2016 171    40    39   1589 21.4023  0.1691 12.7902  4.3932  1.9068 0.04382  4.290  6.913 26.470 21.725  0.0000  0.0000  0.0000
 2016 172    41    40   1698 21.7470  0.1799 13.0928  4.3261  1.9367 0.17691  4.322  7.047 26.170 21.425  0.0000  0.0000  0.0000
 2016 173    42    41   1804 21.7124  0.2023 12.8558  4.4250  2.0798 0.31028  4.387  7.268 26.646 22.039  0.0000  0.0000  0.0000
 2016 174    43    42   1909 21.8618  0.2364 12.6913  4.3267  2.2807 0.45708  4.475  7.561 26.494 23.056  0.0000  0.0000  0.0000
 2016 175    44    43   2016 22.6371  0.2535 14.5098  3.9762  2.3635 0.67689  4.670  7.983 26.994 22.834  0.0000  0.0000  0.0000
 2016 176    45    44   2143 24.5029  0.2763 13.5669  5.0440  2.4697 0.70398  4.747  8.360 26.923 22.453  0.0000  0.0000  0.0000
 2016 177    46    45   2263 25.0320  0.3005 15.5484  4.4784  2.4310 0.88935  4.961  8.813 25.747 21.862  0.0000  0.0000  0.0000
 2016 178    47    46   2393 24.3868  0.3083 13.5536  5.0214  2.2218 0.74539  5.023  9.129 25.129 20.487  0.0000  0.0000  0.0000
 2016 179    48    47   2507 24.6027  0.3285 12.2405  5.6493  2.1846 0.59650  5.063  9.324 24.010 20.056  0.0000  0.0000  0.0000
 2016 180    49    48   2615 24.1580  0.3418 12.3662  5.4134  2.1890 0.57737  5.122  9.498 24.783 19.693  0.0000  0.0000  0.0000
 2016 181    50    49   2722 24.3665  0.0000 13.1105  4.0434  2.3240 2.14815  5.684 10.870 24.726 20.255  3.5946  2.8727 65.1610
 2016 182    51    50   2815 20.9556  0.4854 12.1469  4.3022  2.1819 0.10138  5.654 10.696 24.856 20.075  3.5907  2.8611 65.1973
 2016 183    52    51   2924 25.4559  0.5466 14.4107  5.2630  2.6828 0.21972  5.632 10.567 25.747 21.309  3.6063  2.8974 65.0633
 2016 184    53    52   3045 23.0308  0.0000  9.2470  2.6795  2.4053 6.46958  7.066 14.633 24.934 20.290  3.6015  2.8876 65.1030
 2016 185    54    53   3152 23.9953  0.0000 13.2593  4.0931  2.8586 1.41281  7.481 15.525 26.077 22.052  3.6205  2.9221 64.9497
 2016 186    55    54   3247 23.9461  0.8723 14.5589  4.8370  2.7070 0.00000  7.417 15.160 25.116 21.159  3.6203  2.9253 64.9476
 2016 187    56    55   3332 23.6063  0.9150 14.6412  4.7235  2.9000 0.00000  7.353 14.776 25.775 21.920  3.6280  2.9390 64.8861
 2016 188    57    56   3447 23.1189  0.0000 11.5671  2.6895  3.0966 4.58263  8.455 17.596 26.929 22.627  3.6386  2.9523 64.8067
 2016 189    58    57   3566 23.2398  0.0000 13.3773  3.5341  2.7765 2.06706  9.051 18.871 25.895 20.800  3.6325  2.9435 64.8536
 2016 190    59    58   3659 23.8729  1.2061 15.7375  4.3791  3.2532 0.00355  8.998 18.389 26.976 22.568  3.6383  2.9513 64.8092
 2016 191    60    59   3758 23.5753  0.0000 13.2344  3.1935  3.4279 2.46265  9.723 19.914 28.099 23.002  3.6448  2.9580 64.7622
 2016 192    61    60   3851 24.0883  0.2797 15.0554  3.8996  3.7409 0.30314  9.980 20.050 28.566 23.950  3.6548  2.9639 64.6935
 2016 193    62    61   3931 23.2994  1.4356 14.9925  4.1836  3.8250 0.07345  9.903 19.481 28.887 24.304  3.6644  2.9685 64.6287
 2016 194    63    62   4021 23.3875  1.3591 15.2290  4.3320  3.4447 0.00557  9.816 18.905 27.676 22.886  3.6659  2.9715 64.6169
 2016 195    64    63   4123 22.1749  0.1480 13.9564  3.4812  3.4669 0.39646 10.119 19.153 28.265 23.267  3.6685  2.9744 64.5975
 2016 196    65    64   4219 22.6487  0.8157 14.6796  3.8981  3.3645 0.19313 10.202 18.946 27.954 22.748  3.6688  2.9760 64.5940
 2016 197    66    65   4307 22.6858  1.4052 14.7616  4.1465  3.5351 0.04846 10.085 18.332 28.364 23.536  3.6717  2.9781 64.5740
 2016 198    67    66   4397 22.1985  1.3505 14.4082  4.1095  3.3805 0.05909  9.956 17.732 28.322 23.045  3.6725  2.9796 64.5671
 2016 199    68    67   4490 20.3364  1.2701 13.7312  3.8144  2.7092 0.00000  9.818 17.125 24.459 21.077  3.6681  2.9754 64.5989
 2016 200    69    68   4578 18.6251  1.1621 12.4909  3.5513  2.3905 0.00000  9.662 16.551 25.515 19.476  3.6618  2.9640 64.6497
 2016 201    70    69   4669 20.2852  1.1714 13.4587  3.7786  2.8273 0.01111  9.513 15.969 26.900 21.377  3.6595  2.9626 64.6658
 2016 202    71    70   4760 19.8688  1.1630 13.0916  3.7880  2.7006 0.00000  9.341 15.368 26.272 21.058  3.6568  2.9603 64.6847
 2016 203    72    71   4849 19.9370  0.6149 12.5870  3.5490  2.8388 0.20229  9.388 15.208 27.038 21.753  3.6558  2.9603 64.6909
 2016 204    73    72   4936 19.5129  1.0511 12.6399  3.6875  2.7243 0.02944  9.224 14.660 26.660 21.408  3.6544  2.9595 64.7008
 2016 205    74    73   5020 18.6056  1.1368 11.9248  3.4790  2.9672 0.02383  9.013 14.042 27.957 22.876  3.6554  2.9611 64.6925
 2016 206    75    74   5105 20.3235  1.1528 12.4767  3.8613  3.3941 0.01269  8.790 13.395 28.350 24.547  3.6590  2.9628 64.6684
 2016 207    76    75   5185 18.9421  1.0477 11.5093  3.6032  2.7606 0.31934  8.615 13.013 26.875 21.999  3.6586  2.9630 64.6709
 2016 208    77    76   5267 19.1583  1.0424 11.0394  3.6037  2.9779 0.61891  8.483 12.831 27.251 23.065  3.6593  2.9640 64.6654
 2016 209    78    77   5349 18.7875  1.0386 10.2511  3.2641  3.0613 1.35000  8.474 13.157 28.452 23.331  3.6599  2.9647 64.6607
 2016 210    79    78   5430 18.3766  1.0595 10.0309  3.1423  2.9098 1.47956  8.486 13.530 27.774 22.686  3.6601  2.9651 64.6592
 2016 211    80    79   5544 18.3539  0.0000  4.5493  0.7262  2.9664 8.96854 10.765 19.818 27.726 22.913  3.6603  2.9655 64.6575
 2016 212    81    80   5454 15.3420  0.0000  7.7249  1.2022  2.6678 3.05510 11.277 21.270 26.337 22.284  3.6603  2.9656 64.6576
 2016 213    82    81   5388 12.4964  0.7046  6.7930  1.1795  2.1842 2.38506 11.296 21.957 25.749 20.586  3.6600  2.9652 64.6595
 2016 214    83    82   5336 10.0551  0.3107  5.1597  0.8005  2.1434 1.87146 11.409 22.687 25.859 21.456  3.6599  2.9651 64.6606
 2016 215    84    83   5288  7.5626  1.5627  4.7696  0.8061  1.9916 1.23431 10.762 22.212 25.836 21.571  3.6597  2.9651 64.6616
 2016 216    85    84   5245  5.5857  1.4888  3.6569  0.6368  1.8866 0.80690 10.072 21.546 26.888 21.580  3.6596  2.9650 64.6625
 2016 217    86    85   5209  4.5706  1.4580  3.0157  0.4334  2.0053 0.58764  9.393 20.791 27.569 23.162  3.6597  2.9652 64.6615
 2016 218    87    86   5171  3.4788  1.3966  2.1639  0.3573  2.0125 0.30882  8.757 19.913 27.848 23.960  3.6600  2.9653 64.6596
 2016 219    88    87   5137  2.6030  1.2927  1.5341  0.3091  1.8928 0.11151  8.177 18.971 27.886 23.684  3.6602  2.9655 64.6582
 2016 220    89    88   5108  1.8537  1.1706  1.2105  0.1606  1.6954 0.01287  7.665 18.038 27.524 22.626  3.6602  2.9656 64.6580

*DSSAT Cropping System Model Ver. 4.7.5.007 -  MAR 01, 2026 21:19:28
@YEAR DOY   DAS   DAP   TWAD    PHAD    CMAD    CGRD    GRAD    MRAD    CHAD   CL%D   CS%D   TGNN   TGAV    GN%D    GL%D    GC%D
 2016 154     1     0      0  0.0000  0.0000  0.0000  0.0000  0.0000 0.00000  0.000  0.000 27.494 22.569  0.0000  0.0000  0.0000
 2016 155     2     1      0  0.0000  0.0000  0.0000  0.0000  0.0000 0.00000  0.000  0.000 26.854 21.861  0.0000  0.0000  0.0000
 2016 156     3     2      0  0.0000  0.0000  0.0000  0.0000  0.0000 0.00000  0.000  0.000 27.688 23.488  0.0000  0.0000  0.0000
 2016 157     4     3      0  0.0000  0.0000  0.0000  0.0000  0.0000 0.00000  0.000  0.000 29.159 24.546  0.0000  0.0000  0.0000
 2016 158     5     4     37  0.0000  0.0041  0.0028  0.0009  0.0000 0.00000  3.908  7.808 29.040 23.671  0.0000  0.0000  0.0000
 2016 159     6     5     39  0.4576  0.0041  0.2748  0.0879  0.0485 0.00000  3.839  7.631 27.068 23.386  0.0000  0.0000  0.0000
 2016 160     7     6     42  0.5447  0.0040  0.3312  0.1171  0.0505 0.00000  3.785  7.481 25.762 22.253  0.0000  0.0000  0.0000
 2016 161     8     7     45  0.6438  0.0036  0.3979  0.1350  0.0486 0.00000  3.750  7.372 24.386 20.017  0.0000  0.0000  0.0000
 2016 162     9     8     50  0.8163  0.0047  0.4971  0.1689  0.0777 0.00000  3.704  7.277 27.155 23.819  0.0000  0.0000  0.0000
 2016 163    10     9     55  0.8869  0.0042  0.5564  0.1776  0.0630 0.00000  3.672  7.252 23.684 20.038  0.0000  0.0000  0.0000
 2016 164    11    10     60  0.8704  0.0040  0.5509  0.1729  0.0550 0.00000  3.646  7.246 22.359 18.129  0.0000  0.0000  0.0000
 2016 165    12    11     65  0.9876  0.0046  0.6120  0.2036  0.0681 0.00000  3.635  7.193 24.911 18.790  0.0000  0.0000  0.0000
 2016 166    13    12     73  1.2592  0.0057  0.7752  0.2589  0.0940 0.00000  3.623  7.143 25.410 20.734  0.0000  0.0000  0.0000
 2016 167    14    13     82  1.5842  0.0066  0.9723  0.3256  0.1219 0.00000  3.612  7.107 25.752 21.695  0.0000  0.0000  0.0000
 2016 168    15    14     92  1.8532  0.0071  1.1430  0.4202  0.1327 0.00000  3.607  7.091 25.385 20.847  0.0000  0.0000  0.0000
 2016 169    16    15    105  2.1104  0.0078  1.3759  0.4430  0.1490 0.00000  3.646  7.082 25.785 20.524  0.0000  0.0000  0.0000
 2016 170    17    16    119  2.4915  0.0091  1.4870  0.5565  0.1830 0.00000  3.630  7.076 26.632 21.097  0.0000  0.0000  0.0000
 2016 171    18    17    137  2.9708  0.0109  2.0208  0.5963  0.2232 0.00000  3.665  7.079 26.470 21.725  0.0000  0.0000  0.0000
 2016 172    19    18    157  3.3908  0.0124  2.1690  0.7076  0.2496 0.00000  3.689  7.079 26.170 21.425  0.0000  0.0000  0.0000
 2016 173    20    19    180  3.8935  0.0148  2.4071  0.8281  0.2997 0.00000  3.679  7.079 26.646 22.039  0.0000  0.0000  0.0000
 2016 174    21    20    207  4.5476  0.0182  2.9930  0.9324  0.3708 0.00000  3.699  7.068 26.494 23.056  0.0000  0.0000  0.0000
 2016 175    22    21    238  5.3474  0.0206  3.3767  1.1300  0.4300 0.00000  3.715  7.062 26.994 22.834  0.0000  0.0000  0.0000
 2016 176    23    22    278  6.4093  0.0000  4.0601  1.0320  0.4974 0.34310  5.247  8.423 26.923 22.453  0.0000  0.0000  0.0000
 2016 177    24    23    322  7.1504  0.0349  4.7211  1.4388  0.5322 0.00000  5.045  8.186 25.747 21.862  0.0000  0.0000  0.0000
 2016 178    25    24    369  7.5463  0.0000  5.0894  1.3025  0.5210 0.04685  5.119  8.274 25.129 20.487  0.0000  0.0000  0.0000
 2016 179    26    25    419  8.2733  0.0415  5.4168  1.7137  0.5519 0.00000  4.947  8.087 24.010 20.056  0.0000  0.0000  0.0000
 2016 180    27    26    471  8.8121  0.0449  5.6586  1.8437  0.5926 0.00000  4.801  7.936 24.783 19.693  0.0000  0.0000  0.0000
 2016 181    28    27    530  9.9393  0.0517  6.2509  2.1257  0.6917 0.00000  4.646  7.805 24.726 20.255  0.0000  0.0000  0.0000
 2016 182    29    28    592  9.8944  0.0565  7.0518  1.8039  0.7083 0.00000  4.565  7.693 24.856 20.075  0.0000  0.0000  0.0000
 2016 183    30    29    656 12.5839  0.0672  8.0168  2.4119  0.9515 0.00000  4.541  7.586 25.747 21.309  0.0000  0.0000  0.0000
 2016 184    31    30    719 12.5090  0.0701  7.2227  2.4847  0.9030 0.00000  4.474  7.494 24.934 20.290  0.0000  0.0000  0.0000
 2016 185    32    31    791 14.7304  0.0000  8.9078  2.0325  1.1866 1.36923  6.647  9.204 26.077 22.052  0.0000  0.0000  0.0000
 2016 186    33    32    862 14.6868  0.1191  9.4639  2.6830  1.1352 0.00000  6.469  8.884 25.116 21.159  0.0000  0.0000  0.0000
 2016 187    34    33    932 15.6645  0.1322  8.6656  3.0992  1.2938 0.00000  6.262  8.608 25.775 21.920  0.0000  0.0000  0.0000
 2016 188    35    34    986 16.4937  0.1429  8.2203  3.4491  1.4605 0.00000  6.197  8.370 26.929 22.627  0.0000  0.0000  0.0000
 2016 189    36    35   1061 16.9042  0.1346 11.7907  2.7025  1.3276 0.00000  6.200  8.172 25.895 20.800  0.0000  0.0000  0.0000
 2016 190    37    36   1156 18.2959  0.1585 11.8581  3.2148  1.6290 0.00000  6.022  7.983 26.976 22.568  0.0000  0.0000  0.0000
 2016 191    38    37   1255 19.2757  0.1698 10.8190  3.7500  1.8123 0.00000  5.786  7.816 28.099 23.002  0.0000  0.0000  0.0000
 2016 192    39    38   1364 20.8974  0.1887 14.6240  3.2434  2.0932 0.00000  5.705  7.666 28.566 23.950  0.0000  0.0000  0.0000
 2016 193    40    39   1474 21.3286  0.2055 13.7373  3.5853  2.2399 0.00000  5.575  7.528 28.887 24.304  0.0000  0.0000  0.0000
 2016 194    41    40   1585 22.4871  0.2059 11.7533  4.5636  2.1524 0.00238  5.372  7.413 27.676 22.886  0.0000  0.0000  0.0000
 2016 195    42    41   1688 22.4445  0.2195 12.6872  4.0592  2.2802 0.13813  5.322  7.443 28.265 23.267  0.0000  0.0000  0.0000
 2016 196    43    42   1809 23.8886  0.2283 16.1051  3.9402  2.3427 0.34040  5.398  7.658 27.954 22.748  0.0000  0.0000  0.0000
 2016 197    44    43   1941 24.7933  0.2609 14.4233  4.3363  2.5951 0.47801  5.371  7.938 28.364 23.536  0.0000  0.0000  0.0000
 2016 198    45    44   2060 25.4170  0.2783 13.6981  4.6914  2.6301 0.59329  5.414  8.254 28.322 23.045  0.0000  0.0000  0.0000
 2016 199    46    45   2171 24.1788  0.2845 13.2879  4.5084  2.1858 0.65014  5.495  8.570 24.459 21.077  0.0000  0.0000  0.0000
 2016 200    47    46   2280 23.2472  0.2749 12.8121  4.4402  2.0113 0.66554  5.577  8.875 25.515 19.476  0.0000  0.0000  0.0000
 2016 201    48    47   2401 25.5994  0.3327 15.7963  4.4499  2.4985 0.91713  5.760  9.291 26.900 21.377  0.0000  0.0000  0.0000
 2016 202    49    48   2537 25.6942  0.3624 13.5575  5.1869  2.4839 0.72296  5.747  9.539 26.272 21.058  0.0000  0.0000  0.0000
 2016 203    50    49   2651 26.3980  0.4035 13.2553  5.4859  2.7330 0.65886  5.787  9.724 27.038 21.753  0.0000  0.0000  0.0000
 2016 204    51    50   2768 26.5658  0.0000 14.8763  4.3047  2.7227 1.67149  6.240 10.747 26.660 21.408  3.6275  2.9445 64.8837
 2016 205    52    51   2872 24.8764  0.5602 13.8787  4.7408  2.9975 0.33956  6.215 10.672 27.957 22.876  3.6668  2.9840 64.5984
 2016 206    53    52   2994 28.0123  0.6480 13.8679  6.1011  3.6083 0.00730  6.046 10.371 28.350 24.547  3.7103  2.9936 64.3167
 2016 207    54    53   3110 27.1951  0.6036 15.5256  5.4387  3.0391 0.00000  5.969 10.107 26.875 21.999  3.6815  2.9830 64.5077
 2016 208    55    54   3250 27.7361  0.0000 12.9467  3.7839  3.3595 5.08839  7.119 13.289 27.251 23.065  3.6821  2.9881 64.4991
 2016 209    56    55   3363 27.3465  0.8503 16.0305  5.3623  3.5250 0.04073  7.056 12.958 28.452 23.331  3.6855  2.9915 64.4744
 2016 210    57    56   3476 26.9769  0.8500 16.2656  5.2152  3.3948 0.01295  6.995 12.617 27.774 22.686  3.6810  2.9910 64.5026
 2016 211    58    57   3606 27.0326  0.0000 13.3319  3.3617  3.5024 5.08855  8.179 15.750 27.726 22.913  3.6801  2.9918 64.5074
 2016 212    59    58   3711 26.4694  0.7474 17.0120  4.7786  3.3362 0.07118  8.207 15.513 26.337 22.284  3.6747  2.9890 64.5441
 2016 213    60    59   3817 24.7548  0.9944 15.8995  4.7290  2.9274 0.00000  8.144 15.110 25.749 20.586  3.6616  2.9719 64.6433
 2016 214    61    60   3918 25.5304  1.0320 16.5042  4.7838  3.1905 0.00000  8.083 14.688 25.859 21.456  3.6563  2.9679 64.6804
 2016 215    62    61   4044 25.3345  0.0000 14.8160  3.6716  3.2505 2.29097  8.758 16.162 25.836 21.571  3.6529  2.9656 64.7041
 2016 216    63    62   4145 24.5925  1.1261 16.2755  4.4845  3.3024 0.00000  8.688 15.694 26.888 21.580  3.6504  2.9640 64.7211
 2016 217    64    63   4235 25.3442  1.1768 16.3459  4.6504  3.7150 0.00000  8.615 15.195 27.569 23.162  3.6545  2.9679 64.6912
 2016 218    65    64   4354 25.3982  0.0000 15.4280  3.7747  3.8962 1.19884  9.116 16.022 27.848 23.960  3.6613  2.9714 64.6454
 2016 219    66    65   4457 24.9789  1.2492 16.5329  4.4191  3.7915 0.00214  9.024 15.475 27.886 23.684  3.6657  2.9742 64.6151
 2016 220    67    66   4559 24.1401  1.1798 15.6773  4.4698  3.4676 0.00213  8.918 14.942 27.524 22.626  3.6659  2.9754 64.6130
 2016 221    68    67   4661 24.0838  1.1643 15.5880  4.3478  3.6635 0.11352  8.819 14.468 28.818 23.328  3.6680  2.9773 64.5975
 2016 222    69    68   4776 24.1186  0.0936 14.7582  3.9105  3.8872 0.40601  9.115 14.742 29.659 24.236  3.6725  2.9790 64.5679
 2016 223    70    69   4881 23.4150  0.8960 15.0037  4.1547  3.6052 0.10963  9.087 14.399 28.737 23.451  3.6742  2.9805 64.5555
 2016 224    71    70   4986 22.2096  1.0317 14.5243  4.1530  3.1884 0.04392  8.978 13.927 27.032 22.300  3.6796  2.9668 64.5355
 2016 225    72    71   5094 22.1555  0.6383 14.1794  3.7917  3.2254 0.18213  9.013 13.751 27.682 22.462  3.6699  2.9857 64.5774
 2016 226    73    72   5188 20.5739  0.6950 12.8485  3.5949  3.4646 0.17019  9.025 13.532 29.406 23.835  3.6750  2.9805 64.5506
 2016 227    74    73   5281 20.5251  0.5072 12.4047  3.4849  3.7574 0.25190  9.121 13.472 30.328 25.173  3.6832  2.9735 64.5067
 2016 228    75    74   5374 20.8923  0.3156 12.1564  3.4626  4.1485 0.34137  9.310 13.582 31.193 26.733  3.6939  2.9657 64.4472
 2016 229    76    75   5384  5.5487  1.0867  4.5326  0.5901  1.7382 0.00000  9.076 12.996 22.384 20.223  3.6923  2.9641 64.4592
 2016 230    77    76   5479 19.8692  1.0932 11.8872  3.4453  3.3792 0.75481  8.960 12.917 30.864 23.610  3.6919  2.9670 64.4588
 2016 231    78    77   5569 19.4828  1.1100 10.8030  3.3620  3.5471 1.15975  8.888 13.093 31.799 24.403  3.6951  2.9636 64.4420
 2016 232    79    78   5657 19.6560  1.0994 10.0440  3.2971  3.3726 1.97570  8.960 13.773 30.656 23.746  3.6946  2.9657 64.4430
 2016 233    80    79   5778 20.4226  0.0000  9.8429  1.5197  3.4484 4.43742 10.021 16.707 29.834 24.038  3.6825  2.9916 64.4930
 2016 234    81    80   5668 13.8433  1.3488  8.3758  1.4132  2.1301 2.70701  9.821 17.162 21.744 20.067  3.6758  3.0035 64.5227
 2016 235    82    81   5599 12.6083  1.2293  7.3280  1.2391  1.7858 2.99217  9.688 17.964 22.481 18.323  3.6758  3.0035 64.5227
 2016 236    83    82   5542 11.1206  1.3014  6.0107  1.1707  2.3341 2.40355  9.339 18.335 28.335 21.518  3.6758  3.0035 64.5227
 2016 237    84    83   5499 10.1811  1.3799  5.3447  0.9909  2.7161 2.12232  8.882 18.504 29.786 24.436  3.6758  3.0035 64.5227
 2016 238    85    84   5459  8.2342  1.3644  4.1367  0.9285  2.3933 1.63972  8.389 18.430 28.087 23.714  3.6758  3.0035 64.5227
 2016 239    86    85   5420  6.7416  1.3301  3.2616  0.7715  2.2822 1.29284  7.892 18.203 28.544 23.679  3.6758  3.0035 64.5227
 2016 240    87    86   5383  5.2897  1.2812  2.2542  0.7519  2.1473 0.89353  7.386 17.783 28.931 23.434  3.6758  3.0035 64.5227
 2016 241    88    87   5346  4.1336  1.2767  1.4546  0.6297  2.2946 0.57660  6.866 17.178 29.906 25.142  3.6758  3.0035 64.5227
 2016 242    89    88   5311  3.1008  1.2436  0.9571  0.4194  2.2926 0.37941  6.364 16.474 29.508 25.933  3.6758  3.0035 64.5227

*DSSAT Cropping System Model Ver. 4.7.5.007 -  MAR 01, 2026 21:19:28
@YEAR DOY   DAS   DAP   TWAD    PHAD    CMAD    CGRD    GRAD    MRAD    CHAD   CL%D   CS%D   TGNN   TGAV    GN%D    GL%D    GC%D
 2017 108     1     0      0  0.0000  0.0000  0.0000  0.0000  0.0000 0.00000  0.000  0.000 28.149 24.728  0.0000  0.0000  0.0000
 2017 109     2     1      0  0.0000  0.0000  0.0000  0.0000  0.0000 0.00000  0.000  0.000 27.571 24.395  0.0000  0.0000  0.0000
 2017 110     3     2      0  0.0000  0.0000  0.0000  0.0000  0.0000 0.00000  0.000  0.000 27.260 23.876  0.0000  0.0000  0.0000
 2017 111     4     3      0  0.0000  0.0000  0.0000  0.0000  0.0000 0.00000  0.000  0.000 22.557 20.535  0.0000  0.0000  0.0000
 2017 112     5     4     33  0.0000  0.0032  0.0022  0.0006  0.0000 0.00000  3.921  7.834 23.023 20.165  0.0000  0.0000  0.0000
 2017 113     6     5     36  0.4505  0.0031  0.2932  0.0786  0.0365 0.00000  3.877  7.684 24.342 20.371  0.0000  0.0000  0.0000
 2017 114     7     6     38  0.5600  0.0036  0.3235  0.1048  0.0493 0.00000  3.812  7.534 26.293 22.045  0.0000  0.0000  0.0000
 2017 115     8     7     43  0.6880  0.0042  0.4997  0.1058  0.0673 0.00000  3.785  7.396 27.414 24.178  0.0000  0.0000  0.0000
 2017 116     9     8     46  0.7095  0.0044  0.3976  0.1318  0.0661 0.00000  3.715  7.297 26.411 23.176  0.0000  0.0000  0.0000
 2017 117    10     9     52  0.8836  0.0046  0.6581  0.1298  0.0758 0.00000  3.724  7.279 25.671 22.751  0.0000  0.0000  0.0000
 2017 118    11    10     57  1.0241  0.0050  0.5694  0.1743  0.0827 0.00000  3.655  7.268 24.796 22.120  0.0000  0.0000  0.0000
 2017 119    12    11     64  1.2508  0.0057  0.7493  0.2180  0.1052 0.00000  3.635  7.193 26.264 22.964  0.0000  0.0000  0.0000
 2017 120    13    12     73  1.4687  0.0062  0.8968  0.2610  0.1157 0.00000  3.624  7.142 24.819 22.388  0.0000  0.0000  0.0000
 2017 121    14    13     82  1.6636  0.0064  1.0254  0.3030  0.1170 0.00000  3.618  7.114 23.353 20.993  0.0000  0.0000  0.0000
 2017 122    15    14     94  2.0344  0.0075  1.3153  0.3998  0.1475 0.00000  3.660  7.095 24.583 21.530  0.0000  0.0000  0.0000
 2017 123    16    15    107  2.1860  0.0084  1.3039  0.4274  0.1551 0.00000  3.638  7.078 23.656 21.125  0.0000  0.0000  0.0000
 2017 124    17    16    123  2.8175  0.0101  1.6890  0.5320  0.2082 0.00000  3.617  7.053 25.185 21.961  0.0000  0.0000  0.0000
 2017 125    18    17    143  3.2673  0.0118  2.1686  0.6189  0.2489 0.00000  3.650  7.035 25.771 22.341  0.0000  0.0000  0.0000
 2017 126    19    18    162  3.4949  0.0129  2.0071  0.7177  0.2493 0.00000  3.620  7.038 24.856 21.220  0.0000  0.0000  0.0000
 2017 127    20    19    189  4.2370  0.0158  2.9742  0.7204  0.3289 0.00000  3.656  7.043 25.712 22.563  0.0000  0.0000  0.0000
 2017 128    21    20    219  5.0803  0.0188  3.1172  0.9460  0.4027 0.00000  3.650  7.007 26.279 22.889  0.0000  0.0000  0.0000
 2017 129    22    21    247  5.6027  0.0209  2.8285  1.1962  0.4295 0.00000  3.584  6.975 26.053 22.249  0.0000  0.0000  0.0000
 2017 130    23    22    282  6.0505  0.0223  3.5336  1.1961  0.4334 0.00000  3.563  6.970 24.924 21.260  0.0000  0.0000  0.0000
 2017 131    24    23    323  6.9854  0.0262  4.1703  1.3662  0.5256 0.00000  3.550  6.962 25.727 21.892  0.0000  0.0000  0.0000
 2017 132    25    24    368  7.6600  0.0287  4.9924  1.5212  0.5492 0.00000  3.583  7.037 25.068 21.130  0.0000  0.0000  0.0000
 2017 133    26    25    419  8.8941  0.0366  5.6357  1.7089  0.7148 0.00000  3.596  7.079 26.020 22.740  0.0000  0.0000  0.0000
 2017 134    27    26    478 10.1310  0.0447  6.2331  1.9715  0.8777 0.00000  3.582  7.094 26.643 23.778  0.0000  0.0000  0.0000
 2017 135    28    27    530 10.2048  0.0481  6.1619  2.0516  0.8262 0.00000  3.625  7.077 25.633 22.390  0.0000  0.0000  0.0000
 2017 136    29    28    592 11.8446  0.0532  8.2822  2.0098  0.9326 0.00000  3.750  7.076 25.742 22.156  0.0000  0.0000  0.0000
 2017 137    30    29    656 11.9583  0.0000  7.3328  1.6440  1.0258 1.00509  5.735  8.688 25.960 22.961  0.0000  0.0000  0.0000
 2017 138    31    30    729 13.8680  0.0944  9.2305  2.5004  1.1484 0.00000  5.590  8.412 26.031 22.619  0.0000  0.0000  0.0000
 2017 139    32    31    801 13.9995  0.0000  8.7436  1.9790  1.1913 0.95228  7.073  9.537 25.468 22.678  0.0000  0.0000  0.0000
 2017 140    33    32    808  4.2518  0.1083  1.7650  0.9770  0.4804 0.00000  6.986  9.325 19.927 19.066  0.0000  0.0000  0.0000
 2017 141    34    33    867 13.6071  0.1242  8.1514  2.6685  1.0763 0.00000  6.807  8.998 23.859 21.243  0.0000  0.0000  0.0000
 2017 142    35    34    940 16.6202  0.0000 10.7611  2.4694  1.4655 0.60460  7.656  9.493 26.191 23.094  0.0000  0.0000  0.0000
 2017 143    36    35   1028 17.3596  0.1784 11.1715  3.1246  1.6382 0.00000  7.337  9.093 26.598 23.880  0.0000  0.0000  0.0000
 2017 144    37    36   1117 18.5651  0.1872  9.1754  4.1205  1.7516 0.00000  6.935  8.767 26.620 23.766  0.0000  0.0000  0.0000
 2017 145    38    37   1205 19.1398  0.1871 11.2963  3.8182  1.7027 0.00000  6.733  8.494 25.432 22.785  0.0000  0.0000  0.0000
 2017 146    39    38   1301 19.5804  0.1890 11.9196  3.9552  1.6794 0.01933  6.535  8.292 24.916 22.063  0.0000  0.0000  0.0000
 2017 147    40    39   1396 19.7644  0.1854 12.8788  3.8687  1.5777 0.15099  6.495  8.295 24.085 20.821  0.0000  0.0000  0.0000
 2017 148    41    40   1505 20.0437  0.1934 11.7385  4.3043  1.5748 0.25581  6.348  8.414 23.787 20.352  0.0000  0.0000  0.0000
 2017 149    42    41   1612 21.5707  0.2269 12.7377  4.3628  1.8835 0.42114  6.321  8.661 24.715 21.693  0.0000  0.0000  0.0000
 2017 150    43    42   1721 22.1701  0.2466 12.9253  4.4938  1.9598 0.56658  6.344  8.995 24.817 21.625  0.0000  0.0000  0.0000
 2017 151    44    43   1830 22.9638  0.2792 13.0235  4.6782  2.1458 0.65056  6.393  9.342 25.396 22.170  0.0000  0.0000  0.0000
 2017 152    45    44   1922 20.1194  0.2674 12.7120  3.7005  1.7011 0.67071  6.554  9.691 22.887 20.004  0.0000  0.0000  0.0000
 2017 153    46    45   2012 17.8199  0.2824 10.8356  3.4003  1.5678 0.53482  6.594  9.911 22.281 19.571  0.0000  0.0000  0.0000
 2017 154    47    46   2132 23.3493  0.3391 13.5844  4.5486  2.2007 0.76262  6.653 10.249 25.326 21.450  0.0000  0.0000  0.0000
 2017 155    48    47   2252 24.3333  0.4125 13.4579  4.8876  2.6791 0.69881  6.665 10.487 26.382 23.502  0.0000  0.0000  0.0000
 2017 156    49    48   2373 24.5423  0.0000 13.9381  4.3224  2.6891 0.98483  6.956 11.187 26.615 23.084  3.6836  2.9965 64.4808
 2017 157    50    49   2496 24.1568  0.0000 10.7555  3.7435  2.5288 4.31371  8.121 14.435 25.798 22.062  3.6519  2.9747 64.7010
 2017 158    51    50   2609 23.6653  0.0000 12.5547  4.4369  2.4599 1.45424  8.590 15.523 25.112 21.582  3.6399  2.9608 64.7900
 2017 159    52    51   2722 24.0114  0.0000 13.0827  4.4265  2.8029 1.15163  9.007 16.391 26.411 22.882  3.6574  2.9766 64.6644
 2017 160    53    52   2831 22.2176  0.0000 12.4341  4.0742  2.2710 1.20261  9.430 17.289 24.358 20.384  3.6353  2.9413 64.8383
 2017 161    54    53   2922 18.5459  0.0000 11.2242  3.6083  1.5610 0.40442  9.642 17.613 20.899 16.823  3.6020  2.8044 65.1830
 2017 162    55    54   3026 19.9815  0.0000 11.9372  3.5705  1.9765 0.88134  9.999 18.283 23.778 18.607  3.5893  2.7810 65.2857
 2017 163    56    55   3107 22.6461  0.6188 14.3359  4.2079  2.8266 0.08182 10.054 18.092 25.784 22.394  3.6057  2.8280 65.1366
 2017 164    57    56   3187 22.4454  1.0199 14.4225  4.3040  2.8336 0.00000  9.974 17.627 25.683 22.293  3.6158  2.8586 65.0428
 2017 165    58    57   3273 22.1612  1.0054 14.2067  4.2416  2.8120 0.00000  9.894 17.159 25.421 22.100  3.6217  2.8786 64.9860
 2017 166    59    58   3352 21.0259  0.9445 13.5700  4.0561  2.5022 0.00000  9.812 16.709 24.039 20.753  3.6196  2.8830 64.9943
 2017 167    60    59   3434 20.5119  0.9172 13.3898  3.9215  2.4182 0.00000  9.728 16.261 23.558 20.307  3.6164  2.8821 65.0153
 2017 168    61    60   3518 20.2246  0.9107 13.3419  3.8068  2.4266 0.00000  9.640 15.806 23.719 20.399  3.6142  2.8822 65.0290
 2017 169    62    61   3592 15.7113  0.4738 11.0473  2.2197  2.2342 0.13132  9.754 15.700 24.164 20.570  3.5779  2.9561 65.1822
 2017 170    63    62   3676 18.5360  0.9482 12.5478  3.3164  2.5215 0.00000  9.655 15.208 24.554 21.474  3.5832  2.9552 65.1497
 2017 171    64    63   3755 18.1644  0.8500 12.1785  3.4312  2.0748 0.00000  9.545 14.753 23.436 19.090  3.5817  2.9390 65.1754
 2017 172    65    64   3838 18.3540  0.8482 12.3454  3.4427  2.1239 0.00000  9.428 14.289 23.266 19.502  3.5812  2.9281 65.1894
 2017 173    66    65   3896 17.3045  0.7541 11.7242  3.2727  1.8829 0.01740  9.320 13.821 21.838 18.552  3.5791  2.9115 65.2188
 2017 174    67    66   3981 17.1426  0.7325 11.5867  3.2103  1.9363 0.02246  9.218 13.418 22.032 19.089  3.5778  2.9022 65.2367
 2017 175    68    67   4065 16.9748  0.7215 11.3935  3.1902  1.9423 0.02274  9.108 13.014 22.335 19.221  3.5772  2.8944 65.2481
 2017 176    69    68   4142 15.2708  0.7227 10.3708  2.9254  1.6542 0.00093  8.956 12.575 21.811 17.773  3.5738  2.8813 65.2826
 2017 177    70    69   4215 15.8950  0.7269 10.4585  3.1111  1.7596 0.00000  8.796 12.125 21.819 18.499  3.5727  2.8722 65.2983
 2017 178    71    70   4287 15.9239  0.7124 10.3733  3.1231  1.8056 0.00000  8.627 11.672 22.200 18.846  3.5721  2.8660 65.3081
 2017 179    72    71   4358 15.8905  0.7007 10.2471  3.1223  1.8522 0.00000  8.450 11.217 22.765 19.171  3.5720  2.8621 65.3132
 2017 180    73    72   4433 15.6814  0.6809 10.1085  3.0848  1.8361 0.00000  8.263 10.765 22.356 19.275  3.5719  2.8588 65.3169
 2017 181    74    73   4500 13.7431  0.5691  8.9700  2.6452  1.7299 0.03337  8.123 10.415 22.625 19.133  3.5764  2.8458 65.3016
 2017 182    75    74   4571 15.5245  0.6629  9.5655  3.0646  1.9499 0.08875  7.941 10.046 23.422 20.101  3.5769  2.8463 65.2981
 2017 183    76    75   4641 15.2315  0.6493  8.7851  2.9168  1.9482 0.56553  7.877 10.146 22.971 20.266  3.5773  2.8470 65.2946
 2017 184    77    76   4701 13.0079  0.5995  7.4061  2.4522  1.4681 0.83765  7.855 10.516 20.618 17.638  3.5767  2.8430 65.3028
 2017 185    78    77   4756 11.2440  0.5729  6.3482  2.0686  1.1822 0.98825  7.866 11.008 18.757 15.846  3.5759  2.8370 65.3134
 2017 186    79    78   4817 11.7137  0.6117  6.1063  1.8894  1.2693 1.80397  8.061 12.141 19.504 16.317  3.5758  2.8358 65.3155
 2017 187    80    79   4880 12.5299  0.6930  6.5227  1.9901  1.4111 1.95741  8.273 13.236 20.573 16.975  3.5756  2.8348 65.3175
 2017 188    81    80   4950 13.7550  0.8090  7.1158  2.1459  1.6371 2.17521  8.509 14.343 21.387 18.165  3.5755  2.8343 65.3187
 2017 189    82    81   5014 11.1016  0.9091  6.8508  1.0583  1.5615 2.20660  8.780 15.410 21.469 18.212  3.5754  2.8337 65.3198
 2017 190    83    82   4866  6.8376  0.9902  4.0299  0.7595  1.4164 1.13722  8.567 15.236 21.490 18.267  3.5754  2.8332 65.3208
 2017 191    84    83   4800 10.6838  0.3132  5.7472  0.9448  1.5964 2.16469  8.837 16.423 22.257 18.793  3.5753  2.8329 65.3215
 2017 192    85    84   4748  8.7333  0.9614  5.3268  0.8707  1.6343 1.68941  8.570 16.735 23.358 19.894  3.5753  2.8329 65.3212
 2017 193    86    85   4700  6.4795  0.9249  3.8389  0.7795  1.4274 1.10200  8.196 16.654 23.295 19.178  3.5753  2.8327 65.3216
 2017 194    87    86   4662  5.3813  0.9063  3.2677  0.5820  1.4135 0.89343  7.795 16.463 23.077 19.817  3.5753  2.8327 65.3214
 2017 195    88    87   4626  4.0443  0.8520  2.3852  0.4851  1.2444 0.60943  7.389 16.118 22.587 18.983  3.5753  2.8325 65.3219
 2017 196    89    88   4593  3.0452  0.8063  1.7241  0.4105  1.1541 0.38942  6.979 15.644 22.474 18.663  3.5753  2.8322 65.3225
 2017 197    90    89   4565  2.4945  0.7738  1.1998  0.4175  1.1539 0.26304  6.561 15.095 22.692 19.085  3.5752  2.8321 65.3228
 2017 198    91    90   4541  2.0415  0.7449  1.0063  0.2899  1.1782 0.18175  6.157 14.505 22.923 19.728  3.5752  2.8321 65.3227
