*PLANT N BALANCE

*DSSAT Cropping System Model Ver. 4.7.5.007 -  MAR 01, 2026 21:19:28

*RUN   1        : Esplen_EPOCA_1_2015       CRGRO047 EMEP1403    1
 MODEL          : CRGRO047 - Dry bean
 EXPERIMENT     : EMEP1403 BN EMGO1401BN CULTIVAR ESPLENDOR
 DATA PATH      :
 TREATMENT  1   : Esplen_EPOCA_1_2015       CRGRO047


 CROP           : Dry bean         CULTIVAR : RODADA_GA        ECOTYPE :MESIND
 STARTING DATE  : APR 13 2015
 PLANTING DATE  : APR 13 2015        PLANTS/m2 : 33.3     ROW SPACING :  45.cm
 WEATHER        : AFGO   2015
 SOIL           : GOST000002     TEXTURE : VFSA  - Latossolo V. Distrofico(2
 SOIL INITIAL C : DEPTH: 90cm EXTR. H2O: 87.7mm  NO3: 90.3kg/ha  NH4:  9.8kg/ha
 WATER BALANCE  : IRRIGATE ON REPORTED DATE(S)
 IRRIGATION     :      288 mm IN    18 APPLICATIONS
 NITROGEN BAL.  : SOIL-N, N-UPTAKE & DYNAMIC N-FIXATION SIMULATION
 N-FERTILIZER   :      100 kg/ha IN     3 APPLICATIONS
 RESIDUE/MANURE : INITIAL :     0 kg/ha ;       0 kg/ha IN     0 APPLICATIONS
 ENVIRONM. OPT. : DAYL=    0.00  SRAD=    0.00  TMAX=    0.00  TMIN=    0.00
                  RAIN=    0.00  CO2 =    0.00  DEW =    0.00  WIND=    0.00
 SIMULATION OPT : WATER   :Y  NITROGEN:Y  N-FIX:Y  PHOSPH :N  PESTS  :N
                  PHOTO   :L  ET      :R  INFIL:S  HYDROL :R  SOM    :G
                  CO2 400ppm  NSWIT   :1  EVAP :S  SOIL   :3  STEMP  :D
 MANAGEMENT OPT : PLANTING:R  IRRIG   :R  FERT :R  RESIDUE:R  HARVEST:M
                  WEATHER :M  TILLAGE :N

*SUMMARY OF SOIL AND GENETIC INPUT PARAMETERS

   SOIL LOWER UPPER   SAT  EXTR  INIT   ROOT   BULK     pH    NO3    NH4    ORG
  DEPTH LIMIT LIMIT    SW    SW    SW   DIST   DENS                          C
   cm   cm3/cm3    cm3/cm3    cm3/cm3         g/cm3         ugN/g  ugN/g     %
-------------------------------------------------------------------------------
  0- 10 0.283 0.377 0.460 0.094 0.377   1.00   1.76   5.00   5.50   0.60   1.67
 10- 20 0.292 0.387 0.440 0.095 0.387   0.80   1.88   5.00   5.50   0.60   1.23
 20- 30 0.286 0.380 0.450 0.094 0.380   0.60   1.85   5.00   5.50   0.60   1.06
 30- 40 0.299 0.398 0.460 0.099 0.398   0.30   1.82   5.00   5.50   0.60   0.87
 40- 50 0.299 0.398 0.460 0.099 0.398   0.10   1.82   5.00   5.50   0.60   0.87
 50- 60 0.299 0.398 0.460 0.099 0.398   0.00   1.82   5.00   5.50   0.60   0.87
 60- 70 0.299 0.398 0.460 0.099 0.398   0.00   1.82   5.00   5.50   0.60   0.87
 70- 80 0.299 0.398 0.460 0.099 0.398   0.00   1.82   5.00   5.50   0.60   0.87
 80- 90 0.299 0.398 0.460 0.099 0.398   0.00   1.82   5.00   5.50   0.60   0.87

TOT- 90  26.5  35.3  41.1   8.8  35.3  <--cm   -  kg/ha-->   90.3    9.8 167130
SOIL ALBEDO    : 0.14      EVAPORATION LIMIT : 6.00         MIN. FACTOR  : 1.00
RUNOFF CURVE # :83.00      DRAINAGE RATE     : 0.30         FERT. FACTOR : 0.90

 Dry bean   CULTIVAR :IB0096-RODADA_GA          ECOTYPE :MESIND
 CSDVAR :12.17  PPSEN  : 0.00  EMG-FLW:30.20  FLW-FSD: 7.10  FSD-PHM : 24.70
 WTPSD  :0.204  SDPDVR : 4.64  SDFDUR :20.90  PODDUR : 9.00  XFRUIT  :  1.00
 THRESH : 78.0  SDPRO  :0.235  SDLIP   : 0.030


   PLANT COMPONENT  HARVEST     LOST*   TOTAL  BALANCE
   ---------------  -------- kg[N]/ha -------  -------
   Leaf N              0.95    18.18    19.13
   Stem N              7.81     3.12    10.94
   Shell N            13.14     4.56    17.70
   Seed N             94.20     0.00    94.20
   Root N              3.14     4.22     7.36
   Nodule N            1.20     1.39     2.60
   Total N           120.44    31.47   151.92
   N leakage                             9.28
   TOTAL N                                      161.20


   N INPUTS TO SYSTEM                kg[N]/ha
   ------------------                --------
   Seed N At Planting                    1.92
   N2 Fixed                             47.20
   N Uptake from Soil                  112.19
   TOTAL N                                      161.31

   * Lost due to senescence, freeze, pest or disease damage.

*******************************************************************************

*DSSAT Cropping System Model Ver. 4.7.5.007 -  MAR 01, 2026 21:19:28

*RUN   2        : Esplen_EPOCA_2_2015       CRGRO047 EMEP1403    2
 MODEL          : CRGRO047 - Dry bean
 EXPERIMENT     : EMEP1403 BN EMGO1401BN CULTIVAR ESPLENDOR
 DATA PATH      :
 TREATMENT  2   : Esplen_EPOCA_2_2015       CRGRO047


 CROP           : Dry bean         CULTIVAR : RODADA_GA        ECOTYPE :MESIND
 STARTING DATE  : MAY  6 2015
 PLANTING DATE  : MAY  6 2015        PLANTS/m2 : 33.3     ROW SPACING :  45.cm
 WEATHER        : AFGO   2015
 SOIL           : GOST000002     TEXTURE : VFSA  - Latossolo V. Distrofico(2
 SOIL INITIAL C : DEPTH: 90cm EXTR. H2O: 87.7mm  NO3: 90.3kg/ha  NH4:  9.8kg/ha
 WATER BALANCE  : IRRIGATE ON REPORTED DATE(S)
 IRRIGATION     :      377 mm IN    22 APPLICATIONS
 NITROGEN BAL.  : SOIL-N, N-UPTAKE & DYNAMIC N-FIXATION SIMULATION
 N-FERTILIZER   :      100 kg/ha IN     3 APPLICATIONS
 RESIDUE/MANURE : INITIAL :     0 kg/ha ;       0 kg/ha IN     0 APPLICATIONS
 ENVIRONM. OPT. : DAYL=    0.00  SRAD=    0.00  TMAX=    0.00  TMIN=    0.00
                  RAIN=    0.00  CO2 =    0.00  DEW =    0.00  WIND=    0.00
 SIMULATION OPT : WATER   :Y  NITROGEN:Y  N-FIX:Y  PHOSPH :N  PESTS  :N
                  PHOTO   :L  ET      :R  INFIL:S  HYDROL :R  SOM    :G
                  CO2 400ppm  NSWIT   :1  EVAP :S  SOIL   :3  STEMP  :D
 MANAGEMENT OPT : PLANTING:R  IRRIG   :R  FERT :R  RESIDUE:R  HARVEST:M
                  WEATHER :M  TILLAGE :N

*SUMMARY OF SOIL AND GENETIC INPUT PARAMETERS

   SOIL LOWER UPPER   SAT  EXTR  INIT   ROOT   BULK     pH    NO3    NH4    ORG
  DEPTH LIMIT LIMIT    SW    SW    SW   DIST   DENS                          C
   cm   cm3/cm3    cm3/cm3    cm3/cm3         g/cm3         ugN/g  ugN/g     %
-------------------------------------------------------------------------------
  0- 10 0.283 0.377 0.460 0.094 0.377   1.00   1.76   5.00   5.50   0.60   1.67
 10- 20 0.292 0.387 0.440 0.095 0.387   0.80   1.88   5.00   5.50   0.60   1.23
 20- 30 0.286 0.380 0.450 0.094 0.380   0.60   1.85   5.00   5.50   0.60   1.06
 30- 40 0.299 0.398 0.460 0.099 0.398   0.30   1.82   5.00   5.50   0.60   0.87
 40- 50 0.299 0.398 0.460 0.099 0.398   0.10   1.82   5.00   5.50   0.60   0.87
 50- 60 0.299 0.398 0.460 0.099 0.398   0.00   1.82   5.00   5.50   0.60   0.87
 60- 70 0.299 0.398 0.460 0.099 0.398   0.00   1.82   5.00   5.50   0.60   0.87
 70- 80 0.299 0.398 0.460 0.099 0.398   0.00   1.82   5.00   5.50   0.60   0.87
 80- 90 0.299 0.398 0.460 0.099 0.398   0.00   1.82   5.00   5.50   0.60   0.87

TOT- 90  26.5  35.3  41.1   8.8  35.3  <--cm   -  kg/ha-->   90.3    9.8 167130
SOIL ALBEDO    : 0.14      EVAPORATION LIMIT : 6.00         MIN. FACTOR  : 1.00
RUNOFF CURVE # :83.00      DRAINAGE RATE     : 0.30         FERT. FACTOR : 0.90

 Dry bean   CULTIVAR :IB0096-RODADA_GA          ECOTYPE :MESIND
 CSDVAR :12.17  PPSEN  : 0.00  EMG-FLW:30.20  FLW-FSD: 7.10  FSD-PHM : 24.70
 WTPSD  :0.204  SDPDVR : 4.64  SDFDUR :20.90  PODDUR : 9.00  XFRUIT  :  1.00
 THRESH : 78.0  SDPRO  :0.235  SDLIP   : 0.030


   PLANT COMPONENT  HARVEST     LOST*   TOTAL  BALANCE
   ---------------  -------- kg[N]/ha -------  -------
   Leaf N              0.75    16.27    17.02
   Stem N              6.13     2.87     9.00
   Shell N            12.67     6.02    18.69
   Seed N             94.78     0.00    94.78
   Root N              2.15     3.39     5.54
   Nodule N            1.57     1.35     2.92
   Total N           118.05    29.90   147.95
   N leakage                             8.87
   TOTAL N                                      156.82


   N INPUTS TO SYSTEM                kg[N]/ha
   ------------------                --------
   Seed N At Planting                    1.92
   N2 Fixed                             52.01
   N Uptake from Soil                  102.94
   TOTAL N                                      156.87

   * Lost due to senescence, freeze, pest or disease damage.

*******************************************************************************

*DSSAT Cropping System Model Ver. 4.7.5.007 -  MAR 01, 2026 21:19:28

*RUN   3        : Esplen_EPOCA_3_2015       CRGRO047 EMEP1403    3
 MODEL          : CRGRO047 - Dry bean
 EXPERIMENT     : EMEP1403 BN EMGO1401BN CULTIVAR ESPLENDOR
 DATA PATH      :
 TREATMENT  3   : Esplen_EPOCA_3_2015       CRGRO047


 CROP           : Dry bean         CULTIVAR : RODADA_GA        ECOTYPE :MESIND
 STARTING DATE  : MAY 28 2015
 PLANTING DATE  : MAY 28 2015        PLANTS/m2 : 33.3     ROW SPACING :  45.cm
 WEATHER        : AFGO   2015
 SOIL           : GOST000002     TEXTURE : VFSA  - Latossolo V. Distrofico(2
 SOIL INITIAL C : DEPTH: 90cm EXTR. H2O: 87.7mm  NO3: 90.3kg/ha  NH4:  9.8kg/ha
 WATER BALANCE  : IRRIGATE ON REPORTED DATE(S)
 IRRIGATION     :      418 mm IN    21 APPLICATIONS
 NITROGEN BAL.  : SOIL-N, N-UPTAKE & DYNAMIC N-FIXATION SIMULATION
 N-FERTILIZER   :      100 kg/ha IN     3 APPLICATIONS
 RESIDUE/MANURE : INITIAL :     0 kg/ha ;       0 kg/ha IN     0 APPLICATIONS
 ENVIRONM. OPT. : DAYL=    0.00  SRAD=    0.00  TMAX=    0.00  TMIN=    0.00
                  RAIN=    0.00  CO2 =    0.00  DEW =    0.00  WIND=    0.00
 SIMULATION OPT : WATER   :Y  NITROGEN:Y  N-FIX:Y  PHOSPH :N  PESTS  :N
                  PHOTO   :L  ET      :R  INFIL:S  HYDROL :R  SOM    :G
                  CO2 400ppm  NSWIT   :1  EVAP :S  SOIL   :3  STEMP  :D
 MANAGEMENT OPT : PLANTING:R  IRRIG   :R  FERT :R  RESIDUE:R  HARVEST:M
                  WEATHER :M  TILLAGE :N

*SUMMARY OF SOIL AND GENETIC INPUT PARAMETERS

   SOIL LOWER UPPER   SAT  EXTR  INIT   ROOT   BULK     pH    NO3    NH4    ORG
  DEPTH LIMIT LIMIT    SW    SW    SW   DIST   DENS                          C
   cm   cm3/cm3    cm3/cm3    cm3/cm3         g/cm3         ugN/g  ugN/g     %
-------------------------------------------------------------------------------
  0- 10 0.283 0.377 0.460 0.094 0.377   1.00   1.76   5.00   5.50   0.60   1.67
 10- 20 0.292 0.387 0.440 0.095 0.387   0.80   1.88   5.00   5.50   0.60   1.23
 20- 30 0.286 0.380 0.450 0.094 0.380   0.60   1.85   5.00   5.50   0.60   1.06
 30- 40 0.299 0.398 0.460 0.099 0.398   0.30   1.82   5.00   5.50   0.60   0.87
 40- 50 0.299 0.398 0.460 0.099 0.398   0.10   1.82   5.00   5.50   0.60   0.87
 50- 60 0.299 0.398 0.460 0.099 0.398   0.00   1.82   5.00   5.50   0.60   0.87
 60- 70 0.299 0.398 0.460 0.099 0.398   0.00   1.82   5.00   5.50   0.60   0.87
 70- 80 0.299 0.398 0.460 0.099 0.398   0.00   1.82   5.00   5.50   0.60   0.87
 80- 90 0.299 0.398 0.460 0.099 0.398   0.00   1.82   5.00   5.50   0.60   0.87

TOT- 90  26.5  35.3  41.1   8.8  35.3  <--cm   -  kg/ha-->   90.3    9.8 167130
SOIL ALBEDO    : 0.14      EVAPORATION LIMIT : 6.00         MIN. FACTOR  : 1.00
RUNOFF CURVE # :83.00      DRAINAGE RATE     : 0.30         FERT. FACTOR : 0.90

 Dry bean   CULTIVAR :IB0096-RODADA_GA          ECOTYPE :MESIND
 CSDVAR :12.17  PPSEN  : 0.00  EMG-FLW:30.20  FLW-FSD: 7.10  FSD-PHM : 24.70
 WTPSD  :0.204  SDPDVR : 4.64  SDFDUR :20.90  PODDUR : 9.00  XFRUIT  :  1.00
 THRESH : 78.0  SDPRO  :0.235  SDLIP   : 0.030


   PLANT COMPONENT  HARVEST     LOST*   TOTAL  BALANCE
   ---------------  -------- kg[N]/ha -------  -------
   Leaf N              1.14    20.39    21.54
   Stem N              8.24     3.42    11.66
   Shell N            11.74     4.75    16.49
   Seed N             88.12     0.00    88.12
   Root N              2.48     3.59     6.06
   Nodule N            1.32     0.99     2.31
   Total N           113.04    33.14   146.18
   N leakage                            10.04
   TOTAL N                                      156.22


   N INPUTS TO SYSTEM                kg[N]/ha
   ------------------                --------
   Seed N At Planting                    1.92
   N2 Fixed                             34.00
   N Uptake from Soil                  120.36
   TOTAL N                                      156.28

   * Lost due to senescence, freeze, pest or disease damage.

*******************************************************************************

*DSSAT Cropping System Model Ver. 4.7.5.007 -  MAR 01, 2026 21:19:28

*RUN   4        : Esplen_EPOCA_4_2015       CRGRO047 EMEP1403    4
 MODEL          : CRGRO047 - Dry bean
 EXPERIMENT     : EMEP1403 BN EMGO1401BN CULTIVAR ESPLENDOR
 DATA PATH      :
 TREATMENT  4   : Esplen_EPOCA_4_2015       CRGRO047


 CROP           : Dry bean         CULTIVAR : RODADA_GA        ECOTYPE :MESIND
 STARTING DATE  : JUN 10 2015
 PLANTING DATE  : JUN 10 2015        PLANTS/m2 : 33.3     ROW SPACING :  45.cm
 WEATHER        : AFGO   2015
 SOIL           : GOST000002     TEXTURE : VFSA  - Latossolo V. Distrofico(2
 SOIL INITIAL C : DEPTH: 90cm EXTR. H2O: 87.7mm  NO3: 90.3kg/ha  NH4:  9.8kg/ha
 WATER BALANCE  : IRRIGATE ON REPORTED DATE(S)
 IRRIGATION     :      443 mm IN    26 APPLICATIONS
 NITROGEN BAL.  : SOIL-N, N-UPTAKE & DYNAMIC N-FIXATION SIMULATION
 N-FERTILIZER   :      109 kg/ha IN     3 APPLICATIONS
 RESIDUE/MANURE : INITIAL :     0 kg/ha ;       0 kg/ha IN     0 APPLICATIONS
 ENVIRONM. OPT. : DAYL=    0.00  SRAD=    0.00  TMAX=    0.00  TMIN=    0.00
                  RAIN=    0.00  CO2 =    0.00  DEW =    0.00  WIND=    0.00
 SIMULATION OPT : WATER   :Y  NITROGEN:Y  N-FIX:Y  PHOSPH :N  PESTS  :N
                  PHOTO   :L  ET      :R  INFIL:S  HYDROL :R  SOM    :G
                  CO2 400ppm  NSWIT   :1  EVAP :S  SOIL   :3  STEMP  :D
 MANAGEMENT OPT : PLANTING:R  IRRIG   :R  FERT :R  RESIDUE:R  HARVEST:M
                  WEATHER :M  TILLAGE :N

*SUMMARY OF SOIL AND GENETIC INPUT PARAMETERS

   SOIL LOWER UPPER   SAT  EXTR  INIT   ROOT   BULK     pH    NO3    NH4    ORG
  DEPTH LIMIT LIMIT    SW    SW    SW   DIST   DENS                          C
   cm   cm3/cm3    cm3/cm3    cm3/cm3         g/cm3         ugN/g  ugN/g     %
-------------------------------------------------------------------------------
  0- 10 0.283 0.377 0.460 0.094 0.377   1.00   1.76   5.00   5.50   0.60   1.67
 10- 20 0.292 0.387 0.440 0.095 0.387   0.80   1.88   5.00   5.50   0.60   1.23
 20- 30 0.286 0.380 0.450 0.094 0.380   0.60   1.85   5.00   5.50   0.60   1.06
 30- 40 0.299 0.398 0.460 0.099 0.398   0.30   1.82   5.00   5.50   0.60   0.87
 40- 50 0.299 0.398 0.460 0.099 0.398   0.10   1.82   5.00   5.50   0.60   0.87
 50- 60 0.299 0.398 0.460 0.099 0.398   0.00   1.82   5.00   5.50   0.60   0.87
 60- 70 0.299 0.398 0.460 0.099 0.398   0.00   1.82   5.00   5.50   0.60   0.87
 70- 80 0.299 0.398 0.460 0.099 0.398   0.00   1.82   5.00   5.50   0.60   0.87
 80- 90 0.299 0.398 0.460 0.099 0.398   0.00   1.82   5.00   5.50   0.60   0.87

TOT- 90  26.5  35.3  41.1   8.8  35.3  <--cm   -  kg/ha-->   90.3    9.8 167130
SOIL ALBEDO    : 0.14      EVAPORATION LIMIT : 6.00         MIN. FACTOR  : 1.00
RUNOFF CURVE # :83.00      DRAINAGE RATE     : 0.30         FERT. FACTOR : 0.90

 Dry bean   CULTIVAR :IB0096-RODADA_GA          ECOTYPE :MESIND
 CSDVAR :12.17  PPSEN  : 0.00  EMG-FLW:30.20  FLW-FSD: 7.10  FSD-PHM : 24.70
 WTPSD  :0.204  SDPDVR : 4.64  SDFDUR :20.90  PODDUR : 9.00  XFRUIT  :  1.00
 THRESH : 78.0  SDPRO  :0.235  SDLIP   : 0.030


   PLANT COMPONENT  HARVEST     LOST*   TOTAL  BALANCE
   ---------------  -------- kg[N]/ha -------  -------
   Leaf N              1.39    19.97    21.36
   Stem N             10.51     3.35    13.86
   Shell N            11.61     4.69    16.30
   Seed N            100.15     0.00   100.15
   Root N              3.01     4.51     7.51
   Nodule N            1.99     0.80     2.79
   Total N           128.65    33.32   161.97
   N leakage                             9.35
   TOTAL N                                      171.31


   N INPUTS TO SYSTEM                kg[N]/ha
   ------------------                --------
   Seed N At Planting                    1.92
   N2 Fixed                             52.92
   N Uptake from Soil                  116.53
   TOTAL N                                      171.37

   * Lost due to senescence, freeze, pest or disease damage.

*******************************************************************************

*DSSAT Cropping System Model Ver. 4.7.5.007 -  MAR 01, 2026 21:19:28

*RUN   5        : Esplen_EPOCA_1_2016       CRGRO047 EMEP1403    5
 MODEL          : CRGRO047 - Dry bean
 EXPERIMENT     : EMEP1403 BN EMGO1401BN CULTIVAR ESPLENDOR
 DATA PATH      :
 TREATMENT  5   : Esplen_EPOCA_1_2016       CRGRO047


 CROP           : Dry bean         CULTIVAR : RODADA_GA        ECOTYPE :MESIND
 STARTING DATE  : MAY 11 2016
 PLANTING DATE  : MAY 11 2016        PLANTS/m2 : 33.3     ROW SPACING :  45.cm
 WEATHER        : AFGO   2016
 SOIL           : GOST000003     TEXTURE : VFSA  - Latossolo V. Distrofico(2
 SOIL INITIAL C : DEPTH: 90cm EXTR. H2O:105.6mm  NO3: 89.9kg/ha  NH4:  9.5kg/ha
 WATER BALANCE  : IRRIGATE ON REPORTED DATE(S)
 IRRIGATION     :      511 mm IN    32 APPLICATIONS
 NITROGEN BAL.  : SOIL-N, N-UPTAKE & DYNAMIC N-FIXATION SIMULATION
 N-FERTILIZER   :      120 kg/ha IN     3 APPLICATIONS
 RESIDUE/MANURE : INITIAL :     0 kg/ha ;       0 kg/ha IN     0 APPLICATIONS
 ENVIRONM. OPT. : DAYL=    0.00  SRAD=    0.00  TMAX=    0.00  TMIN=    0.00
                  RAIN=    0.00  CO2 =    0.00  DEW =    0.00  WIND=    0.00
 SIMULATION OPT : WATER   :Y  NITROGEN:Y  N-FIX:Y  PHOSPH :N  PESTS  :N
                  PHOTO   :L  ET      :R  INFIL:S  HYDROL :R  SOM    :G
                  CO2 404ppm  NSWIT   :1  EVAP :S  SOIL   :3  STEMP  :D
 MANAGEMENT OPT : PLANTING:R  IRRIG   :R  FERT :R  RESIDUE:R  HARVEST:M
                  WEATHER :M  TILLAGE :N

*SUMMARY OF SOIL AND GENETIC INPUT PARAMETERS

   SOIL LOWER UPPER   SAT  EXTR  INIT   ROOT   BULK     pH    NO3    NH4    ORG
  DEPTH LIMIT LIMIT    SW    SW    SW   DIST   DENS                          C
   cm   cm3/cm3    cm3/cm3    cm3/cm3         g/cm3         ugN/g  ugN/g     %
-------------------------------------------------------------------------------
  0- 10 0.274 0.391 0.502 0.117 0.391   1.00   1.29   5.00   7.60   0.80   1.88
 10- 20 0.262 0.375 0.458 0.113 0.375   0.80   1.36   5.00   7.60   0.80   1.88
 20- 30 0.244 0.356 0.462 0.112 0.356   0.60   1.32   5.00   7.60   0.80   1.88
 30- 40 0.243 0.362 0.453 0.119 0.362   0.30   1.31   5.00   7.60   0.80   1.88
 40- 50 0.243 0.362 0.453 0.119 0.362   0.10   1.31   5.00   7.60   0.80   1.88
 50- 60 0.243 0.362 0.453 0.119 0.362   0.00   1.31   5.00   7.60   0.80   1.88
 60- 70 0.243 0.362 0.453 0.119 0.362   0.00   1.31   5.00   7.60   0.80   1.88
 70- 80 0.243 0.362 0.453 0.119 0.362   0.00   1.31   5.00   7.60   0.80   1.88
 80- 90 0.243 0.362 0.453 0.119 0.362   0.00   1.31   5.00   7.60   0.80   1.88

TOT- 90  22.4  32.9  41.4  10.6  32.9  <--cm   -  kg/ha-->   89.9    9.5 222404
SOIL ALBEDO    : 0.14      EVAPORATION LIMIT : 6.00         MIN. FACTOR  : 1.00
RUNOFF CURVE # :83.00      DRAINAGE RATE     : 0.30         FERT. FACTOR : 0.90

 Dry bean   CULTIVAR :IB0096-RODADA_GA          ECOTYPE :MESIND
 CSDVAR :12.17  PPSEN  : 0.00  EMG-FLW:30.20  FLW-FSD: 7.10  FSD-PHM : 24.70
 WTPSD  :0.204  SDPDVR : 4.64  SDFDUR :20.90  PODDUR : 9.00  XFRUIT  :  1.00
 THRESH : 78.0  SDPRO  :0.235  SDLIP   : 0.030


   PLANT COMPONENT  HARVEST     LOST*   TOTAL  BALANCE
   ---------------  -------- kg[N]/ha -------  -------
   Leaf N              0.85    18.04    18.89
   Stem N              9.39     3.10    12.49
   Shell N            14.08     6.43    20.51
   Seed N            107.74     0.00   107.74
   Root N              1.84     3.00     4.84
   Nodule N            2.19     0.72     2.92
   Total N           136.10    31.29   167.39
   N leakage                             7.31
   TOTAL N                                      174.70


   N INPUTS TO SYSTEM                kg[N]/ha
   ------------------                --------
   Seed N At Planting                    1.92
   N2 Fixed                             60.38
   N Uptake from Soil                  112.46
   TOTAL N                                      174.76

   * Lost due to senescence, freeze, pest or disease damage.

*******************************************************************************

*DSSAT Cropping System Model Ver. 4.7.5.007 -  MAR 01, 2026 21:19:28

*RUN   6        : Esplen_EPOCA_2_2016       CRGRO047 EMEP1403    6
 MODEL          : CRGRO047 - Dry bean
 EXPERIMENT     : EMEP1403 BN EMGO1401BN CULTIVAR ESPLENDOR
 DATA PATH      :
 TREATMENT  6   : Esplen_EPOCA_2_2016       CRGRO047


 CROP           : Dry bean         CULTIVAR : RODADA_GA        ECOTYPE :MESIND
 STARTING DATE  : JUN  2 2016
 PLANTING DATE  : JUN  2 2016        PLANTS/m2 : 33.3     ROW SPACING :  45.cm
 WEATHER        : AFGO   2016
 SOIL           : GOST000003     TEXTURE : VFSA  - Latossolo V. Distrofico(2
 SOIL INITIAL C : DEPTH: 90cm EXTR. H2O:105.6mm  NO3: 89.9kg/ha  NH4:  9.5kg/ha
 WATER BALANCE  : IRRIGATE ON REPORTED DATE(S)
 IRRIGATION     :      421 mm IN    26 APPLICATIONS
 NITROGEN BAL.  : SOIL-N, N-UPTAKE & DYNAMIC N-FIXATION SIMULATION
 N-FERTILIZER   :      120 kg/ha IN     3 APPLICATIONS
 RESIDUE/MANURE : INITIAL :     0 kg/ha ;       0 kg/ha IN     0 APPLICATIONS
 ENVIRONM. OPT. : DAYL=    0.00  SRAD=    0.00  TMAX=    0.00  TMIN=    0.00
                  RAIN=    0.00  CO2 =    0.00  DEW =    0.00  WIND=    0.00
 SIMULATION OPT : WATER   :Y  NITROGEN:Y  N-FIX:Y  PHOSPH :N  PESTS  :N
                  PHOTO   :L  ET      :R  INFIL:S  HYDROL :R  SOM    :G
                  CO2 404ppm  NSWIT   :1  EVAP :S  SOIL   :3  STEMP  :D
 MANAGEMENT OPT : PLANTING:R  IRRIG   :R  FERT :R  RESIDUE:R  HARVEST:M
                  WEATHER :M  TILLAGE :N

*SUMMARY OF SOIL AND GENETIC INPUT PARAMETERS

   SOIL LOWER UPPER   SAT  EXTR  INIT   ROOT   BULK     pH    NO3    NH4    ORG
  DEPTH LIMIT LIMIT    SW    SW    SW   DIST   DENS                          C
   cm   cm3/cm3    cm3/cm3    cm3/cm3         g/cm3         ugN/g  ugN/g     %
-------------------------------------------------------------------------------
  0- 10 0.274 0.391 0.502 0.117 0.391   1.00   1.29   5.00   7.60   0.80   1.88
 10- 20 0.262 0.375 0.458 0.113 0.375   0.80   1.36   5.00   7.60   0.80   1.88
 20- 30 0.244 0.356 0.462 0.112 0.356   0.60   1.32   5.00   7.60   0.80   1.88
 30- 40 0.243 0.362 0.453 0.119 0.362   0.30   1.31   5.00   7.60   0.80   1.88
 40- 50 0.243 0.362 0.453 0.119 0.362   0.10   1.31   5.00   7.60   0.80   1.88
 50- 60 0.243 0.362 0.453 0.119 0.362   0.00   1.31   5.00   7.60   0.80   1.88
 60- 70 0.243 0.362 0.453 0.119 0.362   0.00   1.31   5.00   7.60   0.80   1.88
 70- 80 0.243 0.362 0.453 0.119 0.362   0.00   1.31   5.00   7.60   0.80   1.88
 80- 90 0.243 0.362 0.453 0.119 0.362   0.00   1.31   5.00   7.60   0.80   1.88

TOT- 90  22.4  32.9  41.4  10.6  32.9  <--cm   -  kg/ha-->   89.9    9.5 222404
SOIL ALBEDO    : 0.14      EVAPORATION LIMIT : 6.00         MIN. FACTOR  : 1.00
RUNOFF CURVE # :83.00      DRAINAGE RATE     : 0.30         FERT. FACTOR : 0.90

 Dry bean   CULTIVAR :IB0096-RODADA_GA          ECOTYPE :MESIND
 CSDVAR :12.17  PPSEN  : 0.00  EMG-FLW:30.20  FLW-FSD: 7.10  FSD-PHM : 24.70
 WTPSD  :0.204  SDPDVR : 4.64  SDFDUR :20.90  PODDUR : 9.00  XFRUIT  :  1.00
 THRESH : 78.0  SDPRO  :0.235  SDLIP   : 0.030


   PLANT COMPONENT  HARVEST     LOST*   TOTAL  BALANCE
   ---------------  -------- kg[N]/ha -------  -------
   Leaf N              1.62    20.45    22.08
   Stem N             12.52     3.49    16.01
   Shell N            13.19     5.57    18.77
   Seed N            109.88     0.00   109.88
   Root N              2.57     3.18     5.76
   Nodule N            2.13     1.08     3.21
   Total N           141.93    33.77   175.70
   N leakage                             9.29
   TOTAL N                                      184.99


   N INPUTS TO SYSTEM                kg[N]/ha
   ------------------                --------
   Seed N At Planting                    1.92
   N2 Fixed                             58.61
   N Uptake from Soil                  124.60
   TOTAL N                                      185.13

   * Lost due to senescence, freeze, pest or disease damage.

*******************************************************************************
