*GROWTH ASPECTS OUTPUT FILE

*DSSAT Cropping System Model Ver. 4.7.5.007 -  MAR 01, 2026 21:19:28
!                                                                                                                                                                                                                                                    Root Dens. (cm/cm3) by soil depth (cm):
!                                                                                                                                                                                                                                                   0-10   10-20   20-30   30-40   40-50   50-60   60-70   70-80   80-90
@YEAR DOY   DAS   DAP   L#SD   GSTD   LAID   LWAD   SWAD   GWAD   RWAD   VWAD   CWAD   G#AD    GWGD   HIAD   PWAD   P#AD   WSPD   WSGD   NSTD  PST1A  PST2A   KSTD   EWSD    LN%D   SH%D   HIPD   PWDD   PWTD   SLAD   CHTD   CWID   NWAD   RDPD    RL1D    RL2D    RL3D    RL4D    RL5D    RL6D    RL7D    RL8D    RL9D    SNW0C   SNW1C
 2015 103     1     0    0.0      0  0.000      0      0      0      0      0      0      0     0.0  0.000      0      0  0.000  0.000  0.000  0.000  0.000  0.000  0.000    0.00   0.00   0.00      0      0    0.0   0.00   0.00    0.0   0.00    0.00    0.00    0.00    0.00    0.00    0.00    0.00    0.00    0.00        0       0
 2015 104     2     1    0.0      0  0.000      0      0      0      0      0      0      0     0.0  0.000      0      0  0.000  0.000  0.000  0.000  0.000  0.000  0.000    0.00   0.00   0.00      0      0    0.0   0.00   0.00    0.0   0.00    0.00    0.00    0.00    0.00    0.00    0.00    0.00    0.00    0.00        0       0
 2015 105     3     2    0.0      0  0.000      0      0      0      0      0      0      0     0.0  0.000      0      0  0.000  0.000  0.000  0.000  0.000  0.000  0.000    0.00   0.00   0.00      0      0    0.0   0.00   0.00    0.0   0.00    0.00    0.00    0.00    0.00    0.00    0.00    0.00    0.00    0.00        0       0
 2015 106     4     3    0.0      0  0.000      0      0      0      0      0      0      0     0.0  0.000      0      0  0.000  0.000  0.000  0.000  0.000  0.000  0.000    0.00   0.00   0.00      0      0    0.0   0.00   0.00    0.0   0.00    0.00    0.00    0.00    0.00    0.00    0.00    0.00    0.00    0.00        0       0
 2015 107     5     4    0.2      0  0.028     13      6      0     18     19     19      0     0.0  0.000      0      0  0.000  0.000  0.000  0.000  0.000  0.000  0.000    3.84   0.00   0.00      0      0  216.6   0.04   0.03    4.5   0.27    0.07    0.07    0.03    0.00    0.00    0.00    0.00    0.00    0.00        0       1
 2015 108     6     5    0.5      0  0.037     15      6      0     19     21     21      0     0.0  0.000      0      0  0.000  0.000  0.000  0.000  0.000  0.000  0.000    3.85   0.00   0.00      0      0  242.4   0.05   0.03    4.4   0.29    0.07    0.07    0.03    0.00    0.00    0.00    0.00    0.00    0.00        0       1
 2015 109     7     6    0.8      0  0.048     18      6      0     19     24     24      0     0.0  0.000      0      0  0.000  0.000  0.000  0.000  0.000  0.000  0.000    3.85   0.00   0.00      0      0  267.9   0.06   0.04    4.3   0.31    0.07    0.07    0.03    0.00    0.00    0.00    0.00    0.00    0.00        0       2
 2015 110     8     7    1.1      0  0.064     21      7      0     19     28     28      0     0.0  0.000      0      0  0.000  0.000  0.000  0.000  0.000  0.000  0.013    3.81   0.00   0.00      0      0  301.9   0.07   0.04    4.2   0.34    0.07    0.07    0.04    0.00    0.00    0.00    0.00    0.00    0.00        0       2
 2015 111     9     8    1.4      0  0.079     25      8      0     21     33     33      0     0.0  0.000      0      0  0.000  0.000  0.000  0.000  0.000  0.000  0.000    3.78   0.00   0.00      0      0  321.7   0.08   0.05    4.2   0.36    0.07    0.07    0.04    0.00    0.00    0.00    0.00    0.00    0.00        0       3
 2015 112    10     9    1.7      0  0.092     28     10      0     22     38     38      0     0.0  0.000      0      0  0.000  0.000  0.000  0.000  0.000  0.000  0.000    3.83   0.00   0.00      0      0  331.3   0.09   0.06    4.1   0.38    0.08    0.07    0.04    0.00    0.00    0.00    0.00    0.00    0.00        0       3
 2015 113    11    10    2.0      0  0.117     33     11      0     22     44     44      0     0.0  0.000      0      0  0.000  0.000  0.000  0.000  0.000  0.000  0.000    3.80   0.00   0.00      0      0  352.1   0.10   0.07    4.2   0.40    0.08    0.08    0.04    0.00    0.00    0.00    0.00    0.00    0.00        1       4
 2015 114    12    11    2.3      0  0.146     40     13      0     23     53     53      0     0.0  0.000      0      0  0.000  0.000  0.000  0.000  0.000  0.000  0.000    3.78   0.00   0.00      0      0  366.6   0.11   0.07    4.3   0.42    0.08    0.08    0.04    0.00    0.00    0.00    0.00    0.00    0.00        1       4
 2015 115    13    12    2.6      0  0.179     48     15      0     24     63     63      0     0.0  0.000      0      0  0.000  0.000  0.000  0.000  0.000  0.000  0.000    3.78   0.00   0.00      0      0  373.3   0.12   0.08    4.2   0.44    0.09    0.08    0.05    0.01    0.00    0.00    0.00    0.00    0.00        2       5
 2015 116    14    13    2.9      0  0.218     57     18      0     25     75     75      0     0.0  0.000      0      0  0.000  0.000  0.000  0.000  0.000  0.000  0.000    3.76   0.00   0.00      0      0  381.7   0.13   0.09    4.3   0.46    0.09    0.08    0.05    0.01    0.00    0.00    0.00    0.00    0.00        2       5
 2015 117    15    14    3.1      0  0.234     65     20      0     31     84     84      0     0.0  0.000      0      0  0.000  0.326  0.000  0.000  0.000  0.000  0.000    3.79   0.00   0.00      0      0  362.2   0.13   0.10    4.5   0.48    0.11    0.10    0.06    0.01    0.00    0.00    0.00    0.00    0.00        3       6
 2015 118    16    15    3.3      0  0.273     77     23      0     34    100    100      0     0.0  0.000      0      0  0.000  0.000  0.091  0.000  0.000  0.000  0.000    3.55   0.00   0.00      0      0  356.5   0.14   0.11    5.2   0.50    0.12    0.10    0.07    0.02    0.00    0.00    0.00    0.00    0.00        4       6
 2015 119    17    16    3.6      0  0.305     89     26      0     38    115    115      0     0.0  0.000      0      0  0.000  0.132  0.000  0.000  0.000  0.000  0.000    3.60   0.00   0.00      0      0  343.5   0.15   0.12    5.3   0.50    0.13    0.11    0.07    0.02    0.00    0.00    0.00    0.00    0.00        5       7
 2015 120    18    17    3.6      0  0.305     89     26      0     38    115    115      0     0.0  0.000      0      0  0.000  0.000  0.000  0.000  0.000  0.000  0.000    3.60   0.00   0.00      0      0  343.5   0.15   0.12    5.1   0.50    0.13    0.11    0.07    0.02    0.00    0.00    0.00    0.00    0.00        5       7
 2015 121    19    18    3.8      0  0.356    104     31      0     39    135    135      0     0.0  0.000      0      0  0.000  0.000  0.000  0.000  0.000  0.000  0.000    3.60   0.00   0.00      0      0  341.7   0.15   0.13    5.1   0.50    0.13    0.12    0.08    0.02    0.01    0.00    0.00    0.00    0.00        5       8
 2015 122    20    19    4.0      0  0.395    118     35      0     44    153    153      0     0.0  0.000      0      0  0.000  0.183  0.000  0.000  0.000  0.000  0.000    3.78   0.00   0.00      0      0  334.5   0.16   0.14    5.0   0.50    0.15    0.13    0.08    0.03    0.01    0.00    0.00    0.00    0.00        5       9
 2015 123    21    20    4.2      0  0.421    130     38      0     53    168    168      0     0.0  0.000      0      0  0.054  0.369  0.000  0.000  0.000  0.000  0.000    3.82   0.00   0.00      0      0  325.2   0.16   0.14    5.0   0.50    0.18    0.15    0.10    0.04    0.01    0.00    0.00    0.00    0.00        5      10
 2015 124    22    21    4.4      0  0.502    148     44      0     54    191    191      0     0.0  0.000      0      0  0.000  0.000  0.000  0.000  0.000  0.000  0.000    3.78   0.00   0.00      0      0  339.8   0.17   0.16    5.1   0.50    0.18    0.16    0.10    0.04    0.01    0.00    0.00    0.00    0.00        7      11
 2015 125    23    22    4.7      0  0.608    174     52      0     56    226    226      0     0.0  0.000      0      0  0.000  0.000  0.000  0.000  0.000  0.000  0.000    3.57   0.00   0.00      0      0  348.4   0.18   0.17    6.0   0.50    0.19    0.16    0.11    0.04    0.01    0.00    0.00    0.00    0.00        8      12
 2015 126    24    23    4.9      0  0.705    196     58      0     61    255    255      0     0.0  0.000      0      0  0.000  0.000  0.120  0.000  0.000  0.000  0.000    3.38   0.00   0.00      0      0  358.6   0.20   0.19    7.0   0.50    0.21    0.17    0.12    0.05    0.01    0.00    0.00    0.00    0.00       10      13
 2015 127    25    24    5.2      0  0.806    224     74      0     66    298    298      0     0.0  0.000      0      0  0.000  0.000  0.000  0.000  0.000  0.000  0.000    3.26   0.00   0.00      0      0  359.7   0.21   0.21    8.2   0.50    0.22    0.18    0.13    0.05    0.01    0.00    0.00    0.00    0.00       14      14
 2015 128    26    25    5.5      0  0.929    254     91      0     70    345    345      0     0.0  0.000      0      0  0.000  0.000  0.000  0.000  0.000  0.000  0.000    3.30   0.00   0.00      0      0  365.5   0.23   0.22    8.5   0.50    0.23    0.19    0.14    0.05    0.02    0.00    0.00    0.00    0.00       16      15
 2015 129    27    26    5.7      0  1.058    286    108      0     74    395    395      0     0.0  0.000      0      0  0.000  0.000  0.000  0.000  0.000  0.000  0.000    3.49   0.00   0.00      0      0  369.4   0.25   0.24    8.6   0.50    0.24    0.20    0.14    0.06    0.02    0.00    0.00    0.00    0.00       16      17
 2015 130    28    27    5.9      0  1.096    302    116      0     95    419    419      0     0.0  0.000      0      0  0.177  0.452  0.000  0.000  0.000  0.000  0.000    3.66   0.00   0.00      0      0  362.4   0.26   0.25    8.6   0.50    0.31    0.25    0.18    0.08    0.02    0.00    0.00    0.00    0.00       16      18
 2015 131    29    28    6.1      0  1.183    316    127      0     97    443    443      0     0.0  0.000      0      0  0.000  0.000  0.000  0.000  0.000  0.000  0.036    3.63   0.00   0.00      0      0  374.1   0.27   0.26   10.1   0.50    0.31    0.26    0.18    0.08    0.02    0.00    0.00    0.00    0.00       27      20
 2015 132    30    29    6.3      0  1.311    342    144      0    101    486    486      0     0.0  0.000      0      0  0.000  0.000  0.000  0.000  0.000  0.000  0.000    3.65   0.00   0.00      0      0  383.2   0.29   0.28   10.5   0.50    0.33    0.27    0.19    0.08    0.03    0.00    0.00    0.00    0.00       36      22
 2015 133    31    30    6.6      0  1.442    372    165      0    107    537    537      0     0.0  0.000      0      0  0.000  0.000  0.000  0.000  0.000  0.000  0.000    3.67   0.00   0.00      0      0  387.7   0.31   0.29   10.9   0.50    0.35    0.28    0.20    0.09    0.03    0.00    0.00    0.00    0.00       47      23
 2015 134    32    31    6.8      0  1.481    392    183      0    125    575    575      0     0.0  0.000      0      0  0.000  0.000  0.197  0.000  0.000  0.000  0.000    3.51   0.00   0.00      0      0  377.7   0.33   0.31   12.7   0.50    0.41    0.33    0.24    0.11    0.03    0.00    0.00    0.00    0.00       73      25
 2015 135    33    32    7.0      0  1.609    429    208      0    138    637    637      0     0.0  0.000      0      0  0.000  0.000  0.102  0.000  0.000  0.000  0.000    3.37   0.00   0.00      0      0  375.5   0.35   0.32   14.9   0.50    0.45    0.36    0.26    0.12    0.04    0.00    0.00    0.00    0.00       77      27
 2015 136    34    33    7.3      0  1.735    457    234      0    143    691    691      0     0.0  0.000      0      0  0.000  0.000  0.000  0.000  0.000  0.000  0.000    3.42   0.00   0.00      0      0  379.5   0.37   0.34   15.3   0.50    0.47    0.38    0.28    0.13    0.04    0.00    0.00    0.00    0.00       90      29
 2015 137    35    34    7.5      0  1.863    493    266      0    150    759    759      0     0.0  0.000      0      0  0.000  0.000  0.000  0.000  0.000  0.000  0.000    3.57   0.00   0.00      0      0  378.1   0.39   0.35   15.6   0.50    0.49    0.39    0.29    0.13    0.04    0.00    0.00    0.00    0.00      107      32
 2015 138    36    35    7.8      0  1.968    519    297      0    156    815    815      0     0.0  0.000      0      0  0.000  0.000  0.000  0.000  0.000  0.000  0.000    3.85   0.00   0.00      0      0  379.6   0.41   0.37   15.8   0.50    0.51    0.41    0.30    0.14    0.04    0.00    0.00    0.00    0.00      135      35
 2015 139    37    36    8.0      0  2.006    528    323      0    179    851    851      0     0.0  0.000      0      0  0.000  0.159  0.000  0.000  0.000  0.000  0.000    3.95   0.00   0.00      0      0  380.3   0.44   0.38   16.4   0.50    0.58    0.47    0.34    0.16    0.05    0.00    0.00    0.00    0.00      176      38
 2015 140    38    37    8.3      0  2.188    572    367      0    186    939    939      0     0.0  0.000      0      0  0.000  0.000  0.000  0.000  0.000  0.000  0.000    3.95   0.00   0.00      0      0  382.4   0.46   0.40   16.8   0.50    0.60    0.49    0.36    0.17    0.05    0.00    0.00    0.00    0.00      182      42
 2015 141    39    38    8.5      0  2.340    613    414      0    194   1027   1027      0     0.0  0.000      0      0  0.000  0.000  0.000  0.000  0.000  0.000  0.000    3.99   0.00   0.00      0      0  381.6   0.48   0.41   17.2   0.50    0.63    0.51    0.37    0.18    0.06    0.00    0.00    0.00    0.00      196      46
 2015 142    40    39    8.8      0  2.492    650    467      0    204   1116   1116      0     0.0  0.000      0      0  0.000  0.000  0.000  0.000  0.000  0.000  0.000    3.91   0.00   0.00      0      0  383.6   0.51   0.43   20.1   0.50    0.66    0.53    0.39    0.19    0.06    0.00    0.00    0.00    0.00      220      49
 2015 143    41    40    9.1      1  2.687    691    519      0    211   1210   1210      0     0.0  0.000      0      0  0.000  0.000  0.000  0.000  0.000  0.000  0.000    3.93   0.00   0.00      0      0  389.0   0.54   0.44   20.4   0.50    0.69    0.55    0.41    0.19    0.06    0.00    0.00    0.00    0.00      232      53
 2015 144    42    41    9.3      1  2.866    734    576      0    220   1310   1310      0     0.0  0.000      0      0  0.000  0.000  0.000  0.000  0.000  0.000  0.000    3.99   0.00   0.00      0      0  390.7   0.57   0.45   20.9   0.50    0.71    0.57    0.42    0.20    0.07    0.00    0.00    0.00    0.00      247      58
 2015 145    43    42    9.6      1  3.018    776    639      0    229   1414   1414      0     0.0  0.000      0      0  0.000  0.000  0.000  0.000  0.000  0.000  0.000    4.04   0.00   0.00      0      0  389.1   0.60   0.45   21.4   0.50    0.74    0.60    0.44    0.21    0.07    0.00    0.00    0.00    0.00      268      63
 2015 146    44    43    9.8      3  3.018    794    686      0    286   1481   1481      0     0.0  0.000      0      0  0.000  0.312  0.000  0.000  0.000  0.000  0.000    3.99   0.00   0.00      0      0  379.9   0.62   0.45   24.2   0.50    0.93    0.74    0.55    0.27    0.09    0.00    0.00    0.00    0.00      299      68
 2015 147    45    44   10.1      3  3.189    843    749      0    293   1593   1600      0     0.0  0.000      8     20  0.000  0.000  0.000  0.000  0.000  0.000  0.000    4.00   0.00   0.00      0      8  378.2   0.65   0.45   23.2   0.50    0.95    0.76    0.57    0.27    0.09    0.00    0.00    0.00    0.00      304      75
 2015 148    46    45   10.3      3  3.254    871    796      0    298   1667   1694      0     0.0  0.000     27     55  0.000  0.000  0.000  0.000  0.000  0.000  0.000    4.07   0.00   0.02      0     27  373.5   0.68   0.45   22.3   0.50    0.96    0.77    0.58    0.28    0.09    0.00    0.00    0.00    0.00      321      80
 2015 149    47    46   10.6      3  3.289    893    837      0    302   1730   1785      0     0.0  0.000     55     83  0.000  0.000  0.000  0.000  0.000  0.000  0.000    4.12   0.00   0.03      0     55  368.3   0.70   0.45   21.4   0.50    0.98    0.78    0.58    0.28    0.09    0.00    0.00    0.00    0.00      339      86
 2015 150    48    47   10.8      3  3.322    915    878      0    305   1793   1885      0     0.0  0.000     92    108  0.000  0.000  0.000  0.000  0.000  0.000  0.000    4.16   0.00   0.05      0     92  363.1   0.72   0.45   20.5   0.50    0.99    0.79    0.59    0.29    0.09    0.00    0.00    0.00    0.00      355      91
 2015 151    49    48   10.9      3  3.311    925    905      0    332   1830   1968      0     0.0  0.000    138    136  0.000  0.325  0.000  0.000  0.000  0.000  0.000    4.19   0.00   0.07      0    138  358.0   0.73   0.45   19.7   0.50    1.07    0.86    0.64    0.31    0.10    0.00    0.00    0.00    0.00      371      97
 2015 152    50    49   11.1      5  3.263    921    919      0    356   1840   2036      0     0.0  0.000    196    168  0.138  0.426  0.000  0.000  0.000  0.000  0.000    4.16   0.00   0.10      0    196  354.3   0.74   0.45   18.9   0.50    1.15    0.93    0.69    0.34    0.11    0.00    0.00    0.00    0.00      389     104
 2015 153    51    50   11.3      5  3.301    939    949      0    355   1888   2152     81     0.0  0.000    264    197  0.000  0.000  0.000  0.000  0.000  0.000  0.000    4.16   0.00   0.12      0    264  351.7   0.76   0.45   18.2   0.50    1.15    0.92    0.69    0.34    0.11    0.00    0.00    0.00    0.00      401     112
 2015 154    52    51   11.6      5  3.330    949    963      8    351   1913   2261    224     3.4  0.003    349    230  0.000  0.000  0.000  0.000  0.000  0.000  0.000    4.18   2.18   0.15      0    349  350.7   0.79   0.45   17.4   0.50    1.14    0.91    0.68    0.33    0.11    0.00    0.00    0.00    0.00      412     119
 2015 155    53    52   11.9      5  3.299    942    967     28    346   1910   2369    336     8.4  0.012    459    261  0.000  0.000  0.000  0.000  0.000  0.000  0.000    4.18   6.17   0.19      0    459  350.0   0.82   0.45   16.7   0.50    1.12    0.90    0.67    0.33    0.11    0.00    0.00    0.00    0.00      434     126
 2015 156    54    53   12.1      5  3.179    920    994     59    339   1914   2465    563    10.6  0.024    551    294  0.000  0.111  0.000  0.000  0.000  0.000  0.000    4.09  10.79   0.22      0    551  345.4   0.84   0.45   19.5   0.50    1.10    0.88    0.66    0.32    0.11    0.00    0.00    0.00    0.00      482     132
 2015 157    55    54   12.3      5  3.127    903    984    112    333   1888   2571    699    16.0  0.043    684    335  0.000  0.000  0.000  0.000  0.000  0.000  0.000    4.05  16.32   0.27      0    684  346.1   0.87   0.45   22.6   0.50    1.08    0.87    0.65    0.32    0.10    0.00    0.00    0.00    0.00      500     138
 2015 158    56    55   12.3      5  3.072    886    974    177    326   1860   2679    837    21.1  0.066    819    371  0.000  0.000  0.000  0.000  0.000  0.000  0.000    4.02  21.57   0.31      0    819  346.9   0.89   0.45   22.6   0.50    1.06    0.85    0.63    0.31    0.10    0.00    0.00    0.00    0.00      516     145
 2015 159    57    56   12.3      5  3.017    868    964    253    320   1832   2783   1001    25.3  0.091    951    407  0.000  0.000  0.000  0.000  0.000  0.000  0.000    3.98  26.59   0.34      0    951  347.6   0.91   0.45   23.8   0.50    1.04    0.84    0.62    0.30    0.10    0.00    0.00    0.00    0.00      534     150
 2015 160    58    57   12.3      5  2.959    864   1000    343    313   1864   2902   1114    30.8  0.118   1038    432  0.000  0.093  0.011  0.000  0.000  0.000  0.000    3.87  33.08   0.36      0   1038  342.6   0.93   0.45   27.1   0.50    1.02    0.82    0.61    0.30    0.10    0.00    0.00    0.00    0.00      561     156
 2015 161    59    58   12.3      5  2.897    844    988    445    307   1831   2992   1115    39.9  0.149   1161    430  0.000  0.000  0.000  0.000  0.000  0.000  0.000    3.82  38.37   0.39      0   1161  343.5   0.96   0.45   30.8   0.50    1.01    0.81    0.60    0.29    0.10    0.00    0.00    0.00    0.00      576     162
 2015 162    60    59   12.3      5  2.830    822    975    548    301   1797   3083   1152    47.6  0.178   1287    426  0.000  0.000  0.000  0.000  0.000  0.000  0.000    3.76  42.61   0.42      0   1287  344.4   0.98   0.45   33.3   0.50    0.99    0.79    0.59    0.29    0.09    0.00    0.00    0.00    0.00      605     167
 2015 163    61    60   12.3      5  2.761    806    981    657    295   1787   3187   1170    56.1  0.206   1400    428  0.000  0.000  0.000  0.000  0.000  0.000  0.000    3.67  46.90   0.44      0   1400  342.7   0.98   0.45   37.3   0.50    0.97    0.78    0.58    0.28    0.09    0.00    0.00    0.00    0.00      629     173
 2015 164    62    61   12.3      5  2.695    785    971    763    289   1756   3278   1203    63.5  0.233   1523    435  0.000  0.000  0.000  0.000  0.000  0.000  0.000    3.61  50.13   0.46      0   1523  343.4   0.98   0.45   41.7   0.50    0.95    0.76    0.57    0.28    0.09    0.00    0.00    0.00    0.00      656     178
 2015 165    63    62   12.3      5  2.631    764    958    872    283   1722   3360   1263    69.0  0.260   1638    447  0.000  0.000  0.000  0.000  0.000  0.000  0.000    3.55  53.23   0.49      0   1638  344.5   0.98   0.45   41.9   0.50    0.93    0.75    0.56    0.27    0.09    0.00    0.00    0.00    0.00      688     184
 2015 166    64    63   12.3      5  2.565    742    944    988    277   1686   3443   1320    74.8  0.287   1756    455  0.000  0.000  0.000  0.000  0.000  0.000  0.000    3.48  56.27   0.51      0   1756  345.7   0.98   0.45   41.9   0.50    0.92    0.74    0.55    0.27    0.09    0.00    0.00    0.00    0.00      720     189
 2015 167    65    64   12.3      5  2.502    721    932   1109    272   1653   3534   1330    83.3  0.314   1881    460  0.000  0.000  0.000  0.000  0.000  0.000  0.000    3.41  58.95   0.53      0   1881  346.9   0.98   0.45   41.9   0.50    0.90    0.72    0.54    0.26    0.09    0.00    0.00    0.00    0.00      738     194
 2015 168    66    65   12.3      5  2.437    700    919   1232    266   1619   3623   1330    92.6  0.340   2004    456  0.000  0.000  0.000  0.000  0.000  0.000  0.000    3.34  61.49   0.55      0   2004  348.1   0.98   0.45   41.9   0.50    0.88    0.71    0.53    0.26    0.08    0.00    0.00    0.00    0.00      754     199
 2015 169    67    66   12.3      5  2.375    680    906   1354    261   1586   3712   1341   101.0  0.365   2125    436  0.000  0.000  0.000  0.000  0.000  0.000  0.000    3.26  63.72   0.57      0   2125  349.4   0.98   0.45   41.9   0.50    0.87    0.69    0.52    0.25    0.08    0.00    0.00    0.00    0.00      773     204
 2015 170    68    67   12.3      5  2.317    661    895   1478    256   1555   3801   1351   109.4  0.389   2246    430  0.000  0.000  0.000  0.000  0.000  0.000  0.000    3.19  65.84   0.59      0   2246  350.6   0.98   0.45   41.9   0.50    0.85    0.68    0.51    0.25    0.08    0.00    0.00    0.00    0.00      790     209
 2015 171    69    68   12.3      5  2.268    645    885   1596    251   1530   3888   1351   118.1  0.410   2358    412  0.000  0.000  0.000  0.000  0.000  0.000  0.000    3.12  67.68   0.61      0   2358  351.6   0.98   0.45   41.9   0.50    0.84    0.67    0.50    0.24    0.08    0.00    0.00    0.00    0.00      802     213
 2015 172    70    69   12.3      5  2.217    630    878   1714    247   1508   3979   1351   126.9  0.431   2471    378  0.026  0.350  0.000  0.000  0.000  0.000  0.000    3.05  69.35   0.62      0   2471  352.2   0.98   0.45   41.7   0.50    0.82    0.66    0.49    0.24    0.08    0.00    0.00    0.00    0.00      814     217
 2015 173    71    70   12.3      5  2.170    614    868   1830    243   1483   4065   1351   135.5  0.450   2583    378  0.000  0.000  0.000  0.000  0.000  0.000  0.000    2.98  70.87   0.64      0   2583  353.4   0.98   0.45   41.8   0.50    0.81    0.65    0.48    0.24    0.08    0.00    0.00    0.00    0.00      825     221
 2015 174    72    71   12.3      5  2.122    598    858   1951    238   1456   4155   1351   144.4  0.469   2699    347  0.000  0.000  0.000  0.000  0.000  0.000  0.000    2.91  72.29   0.65      0   2699  354.7   0.98   0.45   41.8   0.50    0.80    0.64    0.48    0.23    0.08    0.00    0.00    0.00    0.00      836     225
 2015 175    73    72   12.3      5  2.078    584    849   2059    234   1433   4236   1351   152.4  0.486   2803    333  0.000  0.000  0.000  0.000  0.000  0.000  0.000    2.84  73.48   0.66      0   2803  355.9   0.98   0.45   41.9   0.50    0.78    0.63    0.47    0.23    0.08    0.00    0.00    0.00    0.00      846     229
 2015 176    74    73   12.3      5  2.028    568    841   2163    230   1409   4311   1351   160.1  0.502   2902    307  0.075  0.383  0.000  0.000  0.000  0.000  0.000    2.77  74.53   0.67      0   2902  356.9   0.98   0.45   41.6   0.50    0.77    0.62    0.46    0.22    0.07    0.00    0.00    0.00    0.00      858     234
 2015 177    75    74   12.3      5  1.987    555    834   2248    227   1389   4372   1351   166.4  0.514   2983    292  0.203  0.468  0.000  0.000  0.000  0.000  0.000    2.70  75.36   0.68      0   2983  357.8   0.98   0.45   41.1   0.50    0.76    0.61    0.45    0.22    0.07    0.00    0.00    0.00    0.00      868     238
 2015 178    76    75   12.3      5  1.953    544    826   2347    223   1370   4449   1351   173.7  0.528   3079    292  0.000  0.000  0.000  0.000  0.000  0.000  0.000    2.64  76.24   0.69      0   3079  359.0   0.98   0.45   41.2   0.50    0.75    0.60    0.45    0.22    0.07    0.00    0.00    0.00    0.00      875     241
 2015 179    77    76   12.3      5  1.921    535    822   2439    220   1357   4524   1351   180.5  0.539   3167    292  0.000  0.000  0.000  0.000  0.000  0.000  0.000    2.57  77.00   0.70      0   3167  359.4   0.98   0.45   41.2   0.50    0.74    0.59    0.44    0.21    0.07    0.00    0.00    0.00    0.00      883     244
 2015 180    78    77   12.3      5  1.867    519    817   2532    217   1337   4594   1351   187.4  0.551   3257    292  0.000  0.146  0.000  0.000  0.000  0.000  0.000    2.51  77.73   0.71      0   3257  359.4   0.98   0.45   41.3   0.50    0.73    0.59    0.44    0.21    0.07    0.00    0.00    0.00    0.00      898     248
 2015 181    79    78   12.3      5  1.775    496    817   2595    214   1313   4630   1353   191.8  0.560   3317    292  0.250  0.500  0.000  0.000  0.000  0.000  0.000    2.42  78.22   0.72      0   3317  358.1   0.98   0.45   40.7   0.50    0.72    0.58    0.43    0.21    0.07    0.00    0.00    0.00    0.00      927     252
 2015 182    80    79   12.3      5  1.741    488    819   2625    224   1307   4650   1353   194.0  0.564   3344    292  0.471  0.647  0.000  0.000  0.000  0.000  0.000    2.36  78.49   0.72      0   3344  357.1   0.98   0.45   39.2   0.50    0.75    0.60    0.45    0.22    0.07    0.00    0.00    0.00    0.00      935     257
 2015 183    81    80   12.3      5  1.714    480    819   2645    231   1299   4661   1353   195.5  0.568   3362    292  0.572  0.715  0.000  0.000  0.000  0.000  0.000    2.30  78.68   0.72      0   3362  356.8   0.98   0.45   37.7   0.50    0.77    0.62    0.46    0.23    0.07    0.00    0.00    0.00    0.00      941     262
 2015 184    82    81   12.3      7  1.699    477    822   2645    244   1299   4660   1353   195.6  0.568   3360    292  0.647  0.765  0.000  0.000  0.000  0.000  0.000    2.27  78.72   0.72      0   3360  356.0   0.98   0.45   36.1   0.50    0.81    0.65    0.49    0.24    0.08    0.00    0.00    0.00    0.00      945     268
 2015 185    83    82   12.3      7  1.270    357    788   2645    253   1145   4504   1353   195.6  0.587   3360    292  0.699  0.800  0.000  0.000  0.000  0.000  0.000    2.24  78.74   0.75      0   3360  356.1   0.98   0.45   34.7   0.50    0.84    0.67    0.50    0.25    0.08    0.00    0.00    0.00    0.00     1100     273
 2015 186    84    83   12.3      7  0.950    267    763   2645    260   1031   4390   1353   195.6  0.603   3359    292  0.606  0.737  0.000  0.000  0.000  0.000  0.000    2.22  78.76   0.77      0   3359  355.4   0.98   0.45   33.3   0.50    0.86    0.69    0.52    0.25    0.08    0.00    0.00    0.00    0.00     1216     279
 2015 187    85    84   12.3      7  0.711    201    747   2646    265    948   4306   1353   195.6  0.614   3358    292  0.465  0.644  0.000  0.000  0.000  0.000  0.000    2.20  78.79   0.78      0   3358  353.1   0.98   0.45   32.0   0.50    0.88    0.71    0.53    0.26    0.09    0.00    0.00    0.00    0.00     1303     285
 2015 188    86    85   12.3      7  0.531    155    742   2646    264    897   4254   1353   195.6  0.622   3357    292  0.000  0.175  0.000  0.000  0.000  0.000  0.000    2.20  78.82   0.79      0   3357  341.5   0.98   0.45   30.7   0.50    0.86    0.71    0.53    0.26    0.09    0.00    0.00    0.00    0.00     1368     291
 2015 189    87    86   12.3      7  0.398    118    731   2646    262    849   4206   1353   195.6  0.629   3357    292  0.000  0.000  0.000  0.000  0.000  0.000  0.000    2.24  78.83   0.80      0   3357  337.1   0.98   0.45   29.5   0.50    0.85    0.71    0.53    0.26    0.09    0.00    0.00    0.00    0.00     1419     296
 2015 190    88    87   12.3      7  0.298     90    725   2646    262    816   4172   1353   195.6  0.634   3356    292  0.145  0.430  0.000  0.000  0.000  0.000  0.000    2.26  78.84   0.80      0   3356  329.9   0.98   0.45   28.3   0.50    0.85    0.71    0.53    0.26    0.09    0.00    0.00    0.00    0.00     1457     302
 2015 191    89    88   12.3      7  0.223     68    718   2646    259    786   4142   1353   195.6  0.639   3356    292  0.337  0.558  0.000  0.000  0.000  0.000  0.000    2.28  78.85   0.81      0   3356  327.2   0.98   0.45   27.2   0.50    0.83    0.71    0.53    0.26    0.09    0.00    0.00    0.00    0.00     1487     309
 2015 192    90    89   12.3      7  0.168     52    712   2646    255    764   4120   1353   195.6  0.642   3356    292  0.140  0.427  0.000  0.000  0.000  0.000  0.000    2.32  78.85   0.81      0   3356  321.5   0.98   0.45   26.1   0.50    0.79    0.70    0.52    0.26    0.09    0.00    0.00    0.00    0.00     1509     317
 2015 193    91    90   12.3      8  0.126     40    708   2646    248    748   4104   1353   195.7  0.645   3356    292  0.000  0.272  0.000  0.000  0.000  0.000  0.000    2.37  78.86   0.82      0   3356  313.8   0.98   0.45   25.0   0.50    0.75    0.70    0.52    0.26    0.08    0.00    0.00    0.00    0.00     1526     326

*DSSAT Cropping System Model Ver. 4.7.5.007 -  MAR 01, 2026 21:19:28
!                                                                                                                                                                                                                                                    Root Dens. (cm/cm3) by soil depth (cm):
!                                                                                                                                                                                                                                                   0-10   10-20   20-30   30-40   40-50   50-60   60-70   70-80   80-90
@YEAR DOY   DAS   DAP   L#SD   GSTD   LAID   LWAD   SWAD   GWAD   RWAD   VWAD   CWAD   G#AD    GWGD   HIAD   PWAD   P#AD   WSPD   WSGD   NSTD  PST1A  PST2A   KSTD   EWSD    LN%D   SH%D   HIPD   PWDD   PWTD   SLAD   CHTD   CWID   NWAD   RDPD    RL1D    RL2D    RL3D    RL4D    RL5D    RL6D    RL7D    RL8D    RL9D    SNW0C   SNW1C
 2015 126     1     0    0.0      0  0.000      0      0      0      0      0      0      0     0.0  0.000      0      0  0.000  0.000  0.000  0.000  0.000  0.000  0.000    0.00   0.00   0.00      0      0    0.0   0.00   0.00    0.0   0.00    0.00    0.00    0.00    0.00    0.00    0.00    0.00    0.00    0.00        0       0
 2015 127     2     1    0.0      0  0.000      0      0      0      0      0      0      0     0.0  0.000      0      0  0.000  0.000  0.000  0.000  0.000  0.000  0.000    0.00   0.00   0.00      0      0    0.0   0.00   0.00    0.0   0.00    0.00    0.00    0.00    0.00    0.00    0.00    0.00    0.00    0.00        0       0
 2015 128     3     2    0.0      0  0.000      0      0      0      0      0      0      0     0.0  0.000      0      0  0.000  0.000  0.000  0.000  0.000  0.000  0.000    0.00   0.00   0.00      0      0    0.0   0.00   0.00    0.0   0.00    0.00    0.00    0.00    0.00    0.00    0.00    0.00    0.00    0.00        0       0
 2015 129     4     3    0.0      0  0.000      0      0      0      0      0      0      0     0.0  0.000      0      0  0.000  0.000  0.000  0.000  0.000  0.000  0.000    0.00   0.00   0.00      0      0    0.0   0.00   0.00    0.0   0.00    0.00    0.00    0.00    0.00    0.00    0.00    0.00    0.00    0.00        0       0
 2015 130     5     4    0.1      0  0.028     13      6      0     18     19     19      0     0.0  0.000      0      0  0.000  0.000  0.000  0.000  0.000  0.000  0.011    3.84   0.00   0.00      0      0  216.4   0.04   0.03    4.5   0.27    0.07    0.07    0.03    0.00    0.00    0.00    0.00    0.00    0.00        0       1
 2015 131     6     5    0.3      0  0.034     14      6      0     18     20     20      0     0.0  0.000      0      0  0.000  0.000  0.000  0.000  0.000  0.000  0.047    3.85   0.00   0.00      0      0  238.4   0.05   0.03    4.3   0.28    0.07    0.07    0.03    0.00    0.00    0.00    0.00    0.00    0.00        0       1
 2015 132     7     6    0.5      0  0.042     16      6      0     19     22     22      0     0.0  0.000      0      0  0.000  0.000  0.000  0.000  0.000  0.000  0.000    3.85   0.00   0.00      0      0  263.5   0.06   0.03    4.2   0.30    0.07    0.07    0.03    0.00    0.00    0.00    0.00    0.00    0.00        0       1
 2015 133     8     7    0.7      0  0.052     18      6      0     19     24     24      0     0.0  0.000      0      0  0.000  0.000  0.000  0.000  0.000  0.000  0.000    3.85   0.00   0.00      0      0  283.9   0.06   0.04    4.1   0.32    0.07    0.07    0.03    0.00    0.00    0.00    0.00    0.00    0.00        0       2
 2015 134     9     8    1.0      0  0.062     21      7      0     19     28     28      0     0.0  0.000      0      0  0.000  0.000  0.000  0.000  0.000  0.000  0.000    3.85   0.00   0.00      0      0  297.0   0.07   0.04    4.0   0.33    0.07    0.07    0.04    0.00    0.00    0.00    0.00    0.00    0.00        0       2
 2015 135    10     9    1.2      0  0.073     24      8      0     20     31     31      0     0.0  0.000      0      0  0.000  0.000  0.000  0.000  0.000  0.000  0.013    3.82   0.00   0.00      0      0  308.4   0.08   0.05    4.1   0.35    0.07    0.07    0.04    0.00    0.00    0.00    0.00    0.00    0.00        0       3
 2015 136    11    10    1.4      0  0.083     26      9      0     21     35     35      0     0.0  0.000      0      0  0.000  0.000  0.000  0.000  0.000  0.000  0.000    3.84   0.00   0.00      0      0  318.2   0.08   0.05    4.0   0.37    0.08    0.07    0.04    0.00    0.00    0.00    0.00    0.00    0.00        0       3
 2015 137    12    11    1.7      0  0.095     29     11      0     23     40     40      0     0.0  0.000      0      0  0.000  0.000  0.000  0.000  0.000  0.000  0.000    3.84   0.00   0.00      0      0  322.9   0.09   0.06    4.0   0.38    0.08    0.08    0.04    0.00    0.00    0.00    0.00    0.00    0.00        0       4
 2015 138    13    12    1.9      0  0.115     35     12      0     23     46     46      0     0.0  0.000      0      0  0.000  0.000  0.000  0.000  0.000  0.000  0.000    3.85   0.00   0.00      0      0  333.3   0.10   0.06    4.0   0.40    0.08    0.08    0.04    0.00    0.00    0.00    0.00    0.00    0.00        0       4
 2015 139    14    13    2.2      0  0.144     41     13      0     24     54     54      0     0.0  0.000      0      0  0.000  0.001  0.000  0.000  0.000  0.000  0.000    3.81   0.00   0.00      0      0  353.1   0.11   0.07    4.0   0.42    0.09    0.08    0.05    0.01    0.00    0.00    0.00    0.00    0.00        1       5
 2015 140    15    14    2.5      0  0.173     48     15      0     25     63     63      0     0.0  0.000      0      0  0.000  0.000  0.000  0.000  0.000  0.000  0.000    3.79   0.00   0.00      0      0  360.8   0.11   0.08    4.1   0.44    0.09    0.08    0.05    0.01    0.00    0.00    0.00    0.00    0.00        1       5
 2015 141    16    15    2.7      0  0.204     56     17      0     25     74     74      0     0.0  0.000      0      0  0.000  0.000  0.000  0.000  0.000  0.000  0.000    3.84   0.00   0.00      0      0  362.0   0.12   0.08    4.1   0.46    0.09    0.08    0.05    0.01    0.00    0.00    0.00    0.00    0.00        1       6
 2015 142    17    16    3.0      0  0.244     66     20      0     26     86     86      0     0.0  0.000      0      0  0.000  0.000  0.000  0.000  0.000  0.000  0.000    3.69   0.00   0.00      0      0  368.0   0.13   0.09    4.8   0.48    0.09    0.09    0.05    0.01    0.00    0.00    0.00    0.00    0.00        2       6
 2015 143    18    17    3.3      0  0.295     77     24      0     28    101    101      0     0.0  0.000      0      0  0.000  0.000  0.000  0.000  0.000  0.000  0.000    3.68   0.00   0.00      0      0  381.0   0.13   0.10    4.8   0.50    0.10    0.09    0.05    0.01    0.00    0.00    0.00    0.00    0.00        3       7
 2015 144    19    18    3.5      0  0.338     90     27      0     32    117    117      0     0.0  0.000      0      0  0.000  0.151  0.000  0.000  0.000  0.000  0.000    3.79   0.00   0.00      0      0  376.8   0.14   0.11    4.8   0.52    0.11    0.10    0.06    0.01    0.00    0.00    0.00    0.00    0.00        3       7
 2015 145    20    19    3.7      0  0.355     97     29      0     40    126    126      0     0.0  0.000      0      0  0.163  0.442  0.000  0.000  0.000  0.000  0.000    3.82   0.00   0.00      0      0  365.7   0.15   0.12    4.7   0.52    0.14    0.12    0.08    0.02    0.01    0.00    0.00    0.00    0.00        3       8
 2015 146    21    20    3.8      0  0.362    101     30      0     48    132    132      0     0.0  0.000      0      0  0.373  0.582  0.000  0.000  0.000  0.000  0.000    3.83   0.00   0.00      0      0  357.4   0.15   0.12    4.6   0.52    0.16    0.14    0.09    0.03    0.01    0.00    0.00    0.00    0.00        3       9
 2015 147    22    21    4.0      0  0.385    111     33      0     58    143    143      0     0.0  0.000      0      0  0.093  0.396  0.000  0.000  0.000  0.000  0.000    3.80   0.00   0.00      0      0  347.8   0.15   0.13    5.1   0.52    0.19    0.16    0.11    0.04    0.01    0.00    0.00    0.00    0.00        4      10
 2015 148    23    22    4.2      0  0.444    128     37      0     59    165    165      0     0.0  0.000      0      0  0.000  0.000  0.000  0.000  0.000  0.000  0.000    3.83   0.00   0.00      0      0  347.4   0.16   0.14    5.1   0.52    0.20    0.17    0.11    0.04    0.01    0.00    0.00    0.00    0.00        4      11
 2015 149    24    23    4.4      0  0.489    143     41      0     60    184    184      0     0.0  0.000      0      0  0.000  0.000  0.000  0.000  0.000  0.000  0.000    3.73   0.00   0.00      0      0  342.9   0.17   0.15    6.0   0.52    0.20    0.17    0.11    0.04    0.01    0.00    0.00    0.00    0.00        9      12
 2015 150    25    24    4.6      0  0.528    156     45      0     61    200    200      0     0.0  0.000      0      0  0.000  0.000  0.000  0.000  0.000  0.000  0.000    3.81   0.00   0.00      0      0  338.9   0.18   0.16    5.9   0.52    0.20    0.17    0.12    0.04    0.01    0.00    0.00    0.00    0.00       19      13
 2015 151    26    25    4.9      0  0.603    179     51      0     62    229    229      0     0.0  0.000      0      0  0.000  0.000  0.000  0.000  0.000  0.000  0.000    3.83   0.00   0.00      0      0  337.5   0.19   0.18    5.9   0.52    0.21    0.17    0.12    0.05    0.01    0.00    0.00    0.00    0.00       22      14
 2015 152    27    26    5.1      0  0.669    199     62      0     68    261    261      0     0.0  0.000      0      0  0.000  0.072  0.000  0.000  0.000  0.000  0.000    3.77   0.00   0.00      0      0  335.8   0.20   0.19    6.9   0.52    0.23    0.19    0.13    0.05    0.02    0.00    0.00    0.00    0.00       24      15
 2015 153    28    27    5.4      0  0.777    227     76      0     71    303    303      0     0.0  0.000      0      0  0.000  0.000  0.000  0.000  0.000  0.000  0.000    3.79   0.00   0.00      0      0  342.2   0.21   0.21    7.1   0.52    0.24    0.20    0.14    0.06    0.02    0.00    0.00    0.00    0.00       24      17
 2015 154    29    28    5.6      0  0.894    257     92      0     75    349    349      0     0.0  0.000      0      0  0.000  0.000  0.000  0.000  0.000  0.000  0.000    3.83   0.00   0.00      0      0  348.2   0.23   0.23    7.2   0.52    0.25    0.21    0.14    0.06    0.02    0.00    0.00    0.00    0.00       24      18
 2015 155    30    29    5.8      0  0.934    275    101      0     96    376    376      0     0.0  0.000      0      0  0.081  0.387  0.000  0.000  0.000  0.000  0.000    3.84   0.00   0.00      0      0  340.0   0.24   0.24    7.4   0.52    0.32    0.26    0.19    0.08    0.03    0.00    0.00    0.00    0.00       24      20
 2015 156    31    30    5.9      0  0.953    287    109      0    120    396    396      0     0.0  0.000      0      0  0.196  0.464  0.000  0.000  0.000  0.000  0.000    3.80   0.00   0.00      0      0  332.2   0.25   0.24    8.0   0.52    0.39    0.32    0.23    0.10    0.03    0.00    0.00    0.00    0.00       27      21
 2015 157    32    31    6.2      0  1.086    323    128      0    124    450    450      0     0.0  0.000      0      0  0.000  0.000  0.000  0.000  0.000  0.000  0.000    3.83   0.00   0.00      0      0  336.4   0.26   0.25    8.2   0.52    0.41    0.33    0.24    0.11    0.03    0.00    0.00    0.00    0.00       27      24
 2015 158    33    32    6.4      0  1.217    357    148      0    129    505    505      0     0.0  0.000      0      0  0.000  0.000  0.000  0.000  0.000  0.000  0.000    3.89   0.00   0.00      0      0  341.2   0.28   0.27    8.5   0.52    0.42    0.35    0.25    0.11    0.04    0.00    0.00    0.00    0.00       36      26
 2015 159    34    33    6.7      0  1.303    381    167      0    137    548    548      0     0.0  0.000      0      0  0.000  0.052  0.000  0.000  0.000  0.000  0.000    3.96   0.00   0.00      0      0  341.7   0.30   0.28    8.9   0.52    0.45    0.37    0.27    0.12    0.04    0.00    0.00    0.00    0.00       56      28
 2015 160    35    34    6.8      0  1.286    386    177      0    171    563    563      0     0.0  0.000      0      0  0.088  0.392  0.000  0.000  0.000  0.000  0.000    3.94   0.00   0.00      0      0  332.9   0.31   0.29    9.9   0.52    0.56    0.45    0.33    0.15    0.05    0.00    0.00    0.00    0.00       81      31
 2015 161    36    35    7.1      0  1.449    425    201      0    174    626    626      0     0.0  0.000      0      0  0.000  0.000  0.000  0.000  0.000  0.000  0.000    3.94   0.00   0.00      0      0  341.2   0.33   0.30   10.1   0.52    0.57    0.46    0.34    0.16    0.05    0.00    0.00    0.00    0.00       81      34
 2015 162    37    36    7.3      0  1.584    459    229      0    180    688    688      0     0.0  0.000      0      0  0.000  0.000  0.000  0.000  0.000  0.000  0.000    4.02   0.00   0.00      0      0  344.9   0.35   0.32   10.5   0.52    0.59    0.48    0.35    0.16    0.05    0.00    0.00    0.00    0.00       98      37
 2015 163    38    37    7.6      0  1.722    488    261      0    187    749    749      0     0.0  0.000      0      0  0.000  0.000  0.000  0.000  0.000  0.000  0.000    3.95   0.00   0.00      0      0  352.9   0.37   0.34   12.3   0.52    0.61    0.50    0.36    0.17    0.06    0.00    0.00    0.00    0.00      129      41
 2015 164    39    38    7.9      0  1.819    513    291      0    193    804    804      0     0.0  0.000      0      0  0.000  0.000  0.000  0.000  0.000  0.000  0.000    4.05   0.00   0.00      0      0  354.6   0.40   0.35   12.7   0.52    0.63    0.51    0.37    0.18    0.06    0.00    0.00    0.00    0.00      157      44
 2015 165    40    39    8.1      0  1.954    550    328      0    199    878    878      0     0.0  0.000      0      0  0.000  0.000  0.000  0.000  0.000  0.000  0.000    4.11   0.00   0.00      0      0  355.4   0.42   0.37   13.2   0.52    0.65    0.53    0.39    0.18    0.06    0.00    0.00    0.00    0.00      173      48
 2015 166    41    40    8.4      0  2.105    588    370      0    206    958    958      0     0.0  0.000      0      0  0.000  0.000  0.000  0.000  0.000  0.000  0.000    4.16   0.00   0.00      0      0  357.8   0.44   0.38   13.6   0.52    0.67    0.54    0.40    0.19    0.06    0.00    0.00    0.00    0.00      190      52
 2015 167    42    41    8.6      1  2.225    620    414      0    221   1034   1034      0     0.0  0.000      0      0  0.000  0.057  0.000  0.000  0.000  0.000  0.000    4.05   0.00   0.00      0      0  359.0   0.46   0.40   16.0   0.52    0.72    0.58    0.43    0.20    0.07    0.00    0.00    0.00    0.00      214      55
 2015 168    43    42    8.9      1  2.410    661    460      0    227   1121   1121      0     0.0  0.000      0      0  0.000  0.000  0.000  0.000  0.000  0.000  0.000    4.06   0.00   0.00      0      0  364.6   0.49   0.41   16.4   0.52    0.74    0.60    0.44    0.21    0.07    0.00    0.00    0.00    0.00      225      60
 2015 169    44    43    9.1      1  2.564    703    509      0    234   1212   1212      0     0.0  0.000      0      0  0.000  0.000  0.000  0.000  0.000  0.000  0.000    4.11   0.00   0.00      0      0  364.9   0.51   0.43   16.8   0.52    0.76    0.62    0.46    0.22    0.07    0.00    0.00    0.00    0.00      238      64
 2015 170    45    44    9.4      3  2.683    739    567      0    244   1306   1306      0     0.0  0.000      0      0  0.000  0.000  0.000  0.000  0.000  0.000  0.000    4.00   0.00   0.00      0      0  363.0   0.54   0.44   19.7   0.52    0.80    0.64    0.47    0.23    0.07    0.00    0.00    0.00    0.00      266      69
 2015 171    46    45    9.6      3  2.792    778    619      0    252   1397   1399      0     0.0  0.000      2      5  0.000  0.000  0.000  0.000  0.000  0.000  0.000    4.00   0.00   0.00      0      2  358.7   0.56   0.45   18.9   0.52    0.82    0.66    0.49    0.24    0.08    0.00    0.00    0.00    0.00      280      73
 2015 172    47    46    9.8      3  2.900    816    665      0    257   1481   1495      0     0.0  0.000     13     32  0.000  0.000  0.000  0.000  0.000  0.000  0.000    4.06   0.00   0.01      0     13  355.4   0.58   0.45   18.1   0.52    0.84    0.68    0.50    0.24    0.08    0.00    0.00    0.00    0.00      290      78
 2015 173    48    47   10.1      3  2.961    842    707      0    262   1549   1583      0     0.0  0.000     35     59  0.000  0.000  0.000  0.000  0.000  0.000  0.000    4.13   0.00   0.02      0     35  351.8   0.61   0.45   17.4   0.52    0.85    0.69    0.51    0.25    0.08    0.00    0.00    0.00    0.00      310      83
 2015 174    49    48   10.3      3  2.968    860    762      0    267   1623   1689      0     0.0  0.000     66     86  0.000  0.000  0.002  0.000  0.000  0.000  0.000    4.04   0.00   0.04      0     66  345.0   0.63   0.45   20.4   0.52    0.87    0.70    0.52    0.25    0.08    0.00    0.00    0.00    0.00      338      87
 2015 175    50    49   10.5      3  3.020    883    800      0    270   1683   1794      0     0.0  0.000    111    126  0.000  0.000  0.000  0.000  0.000  0.000  0.000    3.98   0.00   0.06      0    111  341.9   0.66   0.45   20.4   0.52    0.88    0.71    0.53    0.25    0.08    0.00    0.00    0.00    0.00      347      92
 2015 176    51    50   10.8      3  3.069    907    833      0    272   1740   1906      0     0.0  0.000    166    158  0.000  0.000  0.000  0.000  0.000  0.000  0.000    3.98   0.00   0.09      0    166  338.4   0.68   0.45   19.6   0.52    0.89    0.72    0.53    0.26    0.08    0.00    0.00    0.00    0.00      351      97
 2015 177    52    51   11.0      5  3.054    914    864      0    272   1777   2008     19     0.0  0.000    230    188  0.000  0.000  0.000  0.000  0.000  0.000  0.000    3.91   0.00   0.11      0    230  334.3   0.70   0.45   22.9   0.52    0.89    0.72    0.53    0.26    0.08    0.00    0.00    0.00    0.00      368     101
 2015 178    53    52   11.2      5  3.051    921    887      2    272   1808   2108    132     1.3  0.001    300    218  0.000  0.000  0.000  0.000  0.000  0.000  0.000    3.85   0.55   0.14      0    300  331.1   0.72   0.45   22.9   0.52    0.89    0.72    0.53    0.26    0.08    0.00    0.00    0.00    0.00      384     105
 2015 179    54    53   11.4      5  3.039    921    894     13    270   1814   2200    241     5.3  0.006    386    247  0.000  0.000  0.000  0.000  0.000  0.000  0.000    3.83   3.31   0.18      0    386  330.2   0.74   0.45   22.0   0.52    0.88    0.71    0.53    0.25    0.08    0.00    0.00    0.00    0.00      400     110
 2015 180    55    54   11.6      5  3.011    912    893     34    266   1805   2299    352     9.7  0.015    494    272  0.000  0.000  0.000  0.000  0.000  0.000  0.000    3.80   6.87   0.22      0    494  330.0   0.76   0.45   21.1   0.52    0.87    0.70    0.52    0.25    0.08    0.00    0.00    0.00    0.00      418     115
 2015 181    56    55   11.8      5  2.974    919    941     65    262   1860   2417    510    12.7  0.027    557    300  0.000  0.039  0.173  0.000  0.000  0.000  0.000    3.70  11.61   0.23      0    557  323.6   0.78   0.45   24.6   0.52    0.86    0.69    0.51    0.25    0.08    0.00    0.00    0.00    0.00      440     119
 2015 182    57    56   12.0      5  2.932    909    945    109    257   1854   2508    639    17.1  0.044    654    333  0.000  0.000  0.000  0.000  0.000  0.000  0.000    3.64  16.70   0.26      0    654  322.6   0.80   0.45   28.5   0.52    0.84    0.68    0.50    0.24    0.08    0.00    0.00    0.00    0.00      461     124
 2015 183    58    57   12.0      5  2.889    893    935    166    252   1828   2603    761    21.9  0.064    775    359  0.000  0.000  0.000  0.000  0.000  0.000  0.000    3.61  21.49   0.30      0    775  323.4   0.83   0.45   32.9   0.52    0.83    0.67    0.49    0.24    0.08    0.00    0.00    0.00    0.00      480     128
 2015 184    59    58   12.0      5  2.845    885    947    234    248   1832   2707    883    26.5  0.087    875    386  0.000  0.000  0.000  0.000  0.000  0.000  0.000    3.54  26.76   0.32      0    875  321.5   0.85   0.45   37.8   0.52    0.81    0.66    0.49    0.24    0.08    0.00    0.00    0.00    0.00      503     132
 2015 185    60    59   12.0      5  2.801    869    936    311    243   1805   2790    978    31.8  0.111    985    409  0.000  0.000  0.000  0.000  0.000  0.000  0.000    3.50  31.52   0.35      0    985  322.3   0.87   0.45   39.9   0.52    0.80    0.65    0.48    0.23    0.08    0.00    0.00    0.00    0.00      531     136
 2015 186    61    60   12.0      5  2.757    853    926    392    239   1779   2868   1022    38.4  0.137   1089    420  0.000  0.000  0.000  0.000  0.000  0.000  0.000    3.46  36.02   0.38      0   1089  323.2   0.89   0.45   39.9   0.52    0.79    0.64    0.47    0.23    0.08    0.00    0.00    0.00    0.00      555     140
 2015 187    62    61   12.0      5  2.712    837    915    478    235   1752   2951   1022    46.8  0.162   1199    414  0.000  0.000  0.000  0.000  0.000  0.000  0.000    3.42  39.89   0.41      0   1199  324.1   0.91   0.45   39.9   0.52    0.78    0.63    0.46    0.22    0.07    0.00    0.00    0.00    0.00      567     144
 2015 188    63    62   12.0      5  2.667    821    905    564    231   1726   3006   1022    55.2  0.188   1280    400  0.000  0.000  0.000  0.000  0.000  0.000  0.000    3.37  44.09   0.43      0   1280  324.9   0.91   0.45   38.3   0.52    0.76    0.62    0.46    0.22    0.07    0.00    0.00    0.00    0.00      578     149
 2015 189    64    63   12.0      5  2.628    807    896    610    228   1703   3025   1022    59.7  0.202   1322    369  0.000  0.000  0.000  0.000  0.000  0.000  0.000    3.33  46.16   0.44      0   1322  325.7   0.91   0.45   36.8   0.52    0.75    0.61    0.45    0.22    0.07    0.00    0.00    0.00    0.00      588     154
 2015 190    65    64   12.0      5  2.577    789    886    699    224   1675   3098   1047    66.7  0.226   1423    341  0.000  0.000  0.000  0.000  0.000  0.000  0.000    3.27  49.10   0.46      0   1423  326.6   0.91   0.45   36.8   0.52    0.74    0.60    0.44    0.21    0.07    0.00    0.00    0.00    0.00      611     157
 2015 191    66    65   12.0      5  2.524    772    878    789    220   1649   3181   1098    71.9  0.248   1532    341  0.000  0.326  0.000  0.000  0.000  0.000  0.000    3.21  51.54   0.48      0   1532  327.0   0.91   0.45   38.9   0.52    0.73    0.59    0.44    0.21    0.07    0.00    0.00    0.00    0.00      641     161
 2015 192    67    66   12.0      5  2.470    753    866    887    216   1619   3263   1144    77.6  0.272   1644    350  0.000  0.000  0.000  0.000  0.000  0.000  0.000    3.14  53.97   0.50      0   1644  328.1   0.91   0.45   38.9   0.52    0.72    0.58    0.43    0.21    0.07    0.00    0.00    0.00    0.00      669     165
 2015 193    68    67   12.0      5  2.421    736    855    986    212   1591   3341   1202    82.0  0.295   1750    360  0.000  0.000  0.000  0.000  0.000  0.000  0.000    3.08  56.35   0.52      0   1750  329.1   0.91   0.45   39.0   0.52    0.70    0.57    0.42    0.20    0.07    0.00    0.00    0.00    0.00      696     169
 2015 194    69    68   12.0      5  2.373    721    852   1090    208   1574   3430   1262    86.4  0.318   1856    349  0.000  0.160  0.000  0.000  0.000  0.000  0.000    3.01  58.74   0.54      0   1856  328.8   0.91   0.45   42.7   0.52    0.69    0.56    0.41    0.20    0.07    0.00    0.00    0.00    0.00      721     173
 2015 195    70    69   12.0      5  2.326    705    843   1200    204   1549   3526   1262    95.1  0.340   1977    375  0.000  0.000  0.000  0.000  0.000  0.000  0.000    2.94  60.70   0.56      0   1977  329.7   0.91   0.45   46.4   0.52    0.68    0.55    0.41    0.20    0.06    0.00    0.00    0.00    0.00      732     176
 2015 196    71    70   12.0      5  2.281    690    833   1309    200   1522   3620   1262   103.7  0.362   2098    398  0.000  0.000  0.000  0.000  0.000  0.000  0.000    2.88  62.41   0.58      0   2098  330.8   0.91   0.45   46.4   0.52    0.67    0.54    0.40    0.19    0.06    0.00    0.00    0.00    0.00      744     180
 2015 197    72    71   12.0      5  2.238    674    823   1421    197   1497   3706   1281   110.9  0.384   2209    399  0.000  0.000  0.000  0.000  0.000  0.000  0.000    2.82  64.34   0.60      0   2209  332.0   0.91   0.45   46.5   0.52    0.66    0.53    0.39    0.19    0.06    0.00    0.00    0.00    0.00      762     183
 2015 198    73    72   12.0      5  2.198    664    825   1532    193   1489   3805   1281   119.6  0.403   2316    371  0.000  0.285  0.000  0.000  0.000  0.000  0.000    2.74  66.16   0.61      0   2316  331.1   0.91   0.45   47.9   0.52    0.65    0.52    0.39    0.19    0.06    0.00    0.00    0.00    0.00      771     187
 2015 199    74    73   12.0      5  2.161    651    816   1640    190   1466   3887   1295   126.7  0.422   2420    349  0.000  0.000  0.000  0.000  0.000  0.000  0.000    2.68  67.74   0.62      0   2420  332.2   0.91   0.45   48.0   0.52    0.64    0.51    0.38    0.18    0.06    0.00    0.00    0.00    0.00      786     190
 2015 200    75    74   12.0      5  2.124    637    806   1751    187   1443   3977   1295   135.2  0.440   2534    349  0.000  0.000  0.000  0.000  0.000  0.000  0.000    2.62  69.10   0.64      0   2534  333.5   0.91   0.45   48.0   0.52    0.63    0.50    0.37    0.18    0.06    0.00    0.00    0.00    0.00      796     193
 2015 201    76    75   12.0      5  2.085    623    797   1863    183   1419   4060   1322   140.9  0.459   2640    330  0.000  0.000  0.000  0.000  0.000  0.000  0.000    2.56  70.56   0.65      0   2640  334.8   0.91   0.45   48.0   0.52    0.62    0.50    0.37    0.18    0.06    0.00    0.00    0.00    0.00      815     196
 2015 202    77    76   12.0      5  2.048    611    791   1977    180   1402   4152   1322   149.5  0.476   2750    306  0.000  0.254  0.000  0.000  0.000  0.000  0.000    2.49  71.90   0.66      0   2750  335.3   0.91   0.45   47.9   0.52    0.60    0.49    0.36    0.17    0.06    0.00    0.00    0.00    0.00      824     199
 2015 203    78    77   12.0      5  2.002    595    781   2053    176   1375   4195   1322   155.2  0.489   2819    285  0.465  0.643  0.000  0.000  0.000  0.000  0.000    2.40  72.81   0.67      0   2819  336.6   0.91   0.45   46.9   0.52    0.59    0.48    0.35    0.17    0.06    0.00    0.00    0.00    0.00      836     204
 2015 204    79    78   12.0      5  1.956    578    770   2125    173   1349   4234   1322   160.7  0.502   2885    285  0.468  0.645  0.000  0.000  0.000  0.000  0.000    2.31  73.64   0.68      0   2885  338.1   0.91   0.45   45.8   0.52    0.58    0.47    0.35    0.17    0.06    0.00    0.00    0.00    0.00      847     209
 2015 205    80    79   12.0      5  1.925    569    768   2230    169   1337   4325   1322   168.7  0.516   2987    285  0.000  0.000  0.000  0.000  0.000  0.000  0.000    2.25  74.65   0.69      0   2987  338.1   0.91   0.45   46.1   0.52    0.57    0.46    0.34    0.16    0.05    0.00    0.00    0.00    0.00      854     212
 2015 206    81    80   12.0      5  1.894    559    763   2336    166   1322   4411   1322   176.6  0.529   3089    285  0.000  0.000  0.000  0.000  0.000  0.000  0.000    2.18  75.61   0.70      0   3089  338.7   0.91   0.45   46.2   0.52    0.56    0.45    0.33    0.16    0.05    0.00    0.00    0.00    0.00      862     215
 2015 207    82    81   12.0      5  1.733    511    749   2435    163   1260   4445   1322   184.1  0.548   3185    285  0.000  0.212  0.000  0.000  0.000  0.000  0.000    2.10  76.45   0.72      0   3185  338.8   0.91   0.45   46.1   0.52    0.55    0.44    0.33    0.16    0.05    0.00    0.00    0.00    0.00      920     218
 2015 208    83    82   12.0      5  1.583    466    732   2503    159   1198   4447   1322   189.3  0.563   3249    285  0.323  0.549  0.000  0.000  0.000  0.000  0.000    2.03  77.03   0.73      0   3249  339.9   0.91   0.45   45.3   0.52    0.54    0.43    0.32    0.16    0.05    0.00    0.00    0.00    0.00      973     222
 2015 209    84    83   12.0      5  1.563    458    725   2574    157   1184   4500   1322   194.6  0.572   3317    285  0.000  0.000  0.000  0.000  0.000  0.000  0.000    1.98  77.60   0.74      0   3317  341.2   0.91   0.45   45.3   0.52    0.53    0.43    0.32    0.15    0.05    0.00    0.00    0.00    0.00      978     225
 2015 210    85    84   12.0      5  1.544    456    730   2639    155   1185   4564   1322   199.5  0.578   3378    285  0.000  0.000  0.000  0.000  0.000  0.000  0.000    1.95  78.10   0.74      0   3378  339.0   0.91   0.45   45.3   0.52    0.52    0.42    0.31    0.15    0.05    0.00    0.00    0.00    0.00      982     228
 2015 211    86    85   12.0      7  1.525    458    765   2683    152   1223   4643   1322   202.9  0.578   3420    285  0.000  0.085  0.340  0.000  0.000  0.000  0.000    1.85  78.44   0.74      0   3420  333.2   0.91   0.45   45.3   0.52    0.51    0.41    0.31    0.15    0.05    0.00    0.00    0.00    0.00      987     231
 2015 212    87    86   12.0      7  1.136    344    738   2699    165   1082   4515   1322   204.1  0.598   3433    285  0.316  0.544  0.000  0.000  0.000  0.000  0.000    1.79  78.61   0.76      0   3433  330.4   0.91   0.45   44.5   0.52    0.55    0.45    0.33    0.16    0.05    0.00    0.00    0.00    0.00     1136     235
 2015 213    88    87   12.0      7  0.847    259    718   2707    175    976   4415   1322   204.7  0.613   3439    285  0.322  0.548  0.000  0.000  0.000  0.000  0.000    1.74  78.72   0.78      0   3439  327.4   0.91   0.45   43.6   0.52    0.59    0.47    0.35    0.17    0.06    0.00    0.00    0.00    0.00     1248     239
 2015 214    89    88   12.0      7  0.634    195    700   2707    181    895   4333   1322   204.7  0.625   3438    285  0.376  0.584  0.000  0.000  0.000  0.000  0.000    1.73  78.75   0.79      0   3438  325.1   0.91   0.45   41.9   0.52    0.61    0.49    0.36    0.18    0.06    0.00    0.00    0.00    0.00     1332     243
 2015 215    90    89   12.0      7  0.475    148    688   2707    185    836   4273   1322   204.7  0.634   3437    285  0.247  0.498  0.000  0.000  0.000  0.000  0.000    1.75  78.77   0.80      0   3437  321.1   0.91   0.45   40.2   0.52    0.62    0.50    0.37    0.18    0.06    0.00    0.00    0.00    0.00     1395     248
 2015 216    91    90   12.0      7  0.356    112    677   2707    187    788   4225   1322   204.7  0.641   3437    285  0.300  0.533  0.000  0.000  0.000  0.000  0.000    1.78  78.77   0.81      0   3437  318.6   0.91   0.45   38.6   0.52    0.62    0.50    0.37    0.18    0.06    0.00    0.00    0.00    0.00     1443     253
 2015 217    92    91   12.0      7  0.267     85    667   2707    187    752   4188   1322   204.7  0.646   3436    285  0.228  0.485  0.000  0.000  0.000  0.000  0.000    1.82  78.78   0.82      0   3436  315.2   0.91   0.45   37.1   0.52    0.62    0.50    0.37    0.18    0.06    0.00    0.00    0.00    0.00     1479     259
 2015 218    93    92   12.0      7  0.200     64    660   2707    186    724   4161   1322   204.7  0.651   3436    285  0.125  0.417  0.000  0.000  0.000  0.000  0.000    1.86  78.78   0.83      0   3436  310.4   0.91   0.45   35.6   0.52    0.62    0.50    0.37    0.18    0.06    0.00    0.00    0.00    0.00     1507     264
 2015 219    94    93   12.0      7  0.150     49    654   2707    184    703   4139   1322   204.7  0.654   3436    285  0.002  0.335  0.000  0.000  0.000  0.000  0.000    1.92  78.79   0.83      0   3436  304.1   0.91   0.45   34.2   0.52    0.61    0.50    0.37    0.18    0.06    0.00    0.00    0.00    0.00     1528     269
 2015 220    95    94   12.0      8  0.113     38    648   2707    180    686   4122   1322   204.7  0.657   3436    285  0.000  0.184  0.000  0.000  0.000  0.000  0.000    1.98  78.79   0.83      0   3436  297.4   0.91   0.45   32.8   0.52    0.59    0.49    0.36    0.18    0.06    0.00    0.00    0.00    0.00     1544     275

*DSSAT Cropping System Model Ver. 4.7.5.007 -  MAR 01, 2026 21:19:28
!                                                                                                                                                                                                                                                    Root Dens. (cm/cm3) by soil depth (cm):
!                                                                                                                                                                                                                                                   0-10   10-20   20-30   30-40   40-50   50-60   60-70   70-80   80-90
@YEAR DOY   DAS   DAP   L#SD   GSTD   LAID   LWAD   SWAD   GWAD   RWAD   VWAD   CWAD   G#AD    GWGD   HIAD   PWAD   P#AD   WSPD   WSGD   NSTD  PST1A  PST2A   KSTD   EWSD    LN%D   SH%D   HIPD   PWDD   PWTD   SLAD   CHTD   CWID   NWAD   RDPD    RL1D    RL2D    RL3D    RL4D    RL5D    RL6D    RL7D    RL8D    RL9D    SNW0C   SNW1C
 2015 148     1     0    0.0      0  0.000      0      0      0      0      0      0      0     0.0  0.000      0      0  0.000  0.000  0.000  0.000  0.000  0.000  0.000    0.00   0.00   0.00      0      0    0.0   0.00   0.00    0.0   0.00    0.00    0.00    0.00    0.00    0.00    0.00    0.00    0.00    0.00        0       0
 2015 149     2     1    0.0      0  0.000      0      0      0      0      0      0      0     0.0  0.000      0      0  0.000  0.000  0.000  0.000  0.000  0.000  0.000    0.00   0.00   0.00      0      0    0.0   0.00   0.00    0.0   0.00    0.00    0.00    0.00    0.00    0.00    0.00    0.00    0.00    0.00        0       0
 2015 150     3     2    0.0      0  0.000      0      0      0      0      0      0      0     0.0  0.000      0      0  0.000  0.000  0.000  0.000  0.000  0.000  0.000    0.00   0.00   0.00      0      0    0.0   0.00   0.00    0.0   0.00    0.00    0.00    0.00    0.00    0.00    0.00    0.00    0.00    0.00        0       0
 2015 151     4     3    0.0      0  0.000      0      0      0      0      0      0      0     0.0  0.000      0      0  0.000  0.000  0.000  0.000  0.000  0.000  0.000    0.00   0.00   0.00      0      0    0.0   0.00   0.00    0.0   0.00    0.00    0.00    0.00    0.00    0.00    0.00    0.00    0.00    0.00        0       0
 2015 152     5     4    0.2      0  0.028     13      6      0     18     19     19      0     0.0  0.000      0      0  0.000  0.000  0.000  0.000  0.000  0.000  0.000    3.84   0.00   0.00      0      0  216.3   0.04   0.03    4.5   0.27    0.07    0.07    0.03    0.00    0.00    0.00    0.00    0.00    0.00        0       1
 2015 153     6     5    0.4      0  0.036     15      6      0     19     21     21      0     0.0  0.000      0      0  0.000  0.000  0.000  0.000  0.000  0.000  0.000    3.85   0.00   0.00      0      0  239.2   0.05   0.03    4.4   0.29    0.07    0.07    0.03    0.00    0.00    0.00    0.00    0.00    0.00        0       1
 2015 154     7     6    0.7      0  0.045     17      6      0     19     24     24      0     0.0  0.000      0      0  0.000  0.000  0.000  0.000  0.000  0.000  0.000    3.85   0.00   0.00      0      0  260.3   0.06   0.03    4.2   0.31    0.07    0.07    0.03    0.00    0.00    0.00    0.00    0.00    0.00        0       2
 2015 155     8     7    0.9      0  0.055     20      7      0     20     27     27      0     0.0  0.000      0      0  0.000  0.125  0.037  0.000  0.000  0.000  0.003    3.80   0.00   0.00      0      0  268.5   0.07   0.04    4.2   0.32    0.07    0.07    0.04    0.00    0.00    0.00    0.00    0.00    0.00        0       2
 2015 156     9     8    1.2      0  0.066     23      7      0     21     31     31      0     0.0  0.000      0      0  0.000  0.000  0.000  0.000  0.000  0.000  0.000    3.84   0.00   0.00      0      0  280.9   0.07   0.04    4.1   0.34    0.07    0.07    0.04    0.00    0.00    0.00    0.00    0.00    0.00        0       2
 2015 157    10     9    1.4      0  0.078     27      8      0     22     35     35      0     0.0  0.000      0      0  0.000  0.000  0.000  0.000  0.000  0.000  0.000    3.84   0.00   0.00      0      0  291.6   0.08   0.05    4.1   0.36    0.08    0.07    0.04    0.00    0.00    0.00    0.00    0.00    0.00        0       3
 2015 158    11    10    1.7      0  0.090     30     10      0     23     40     40      0     0.0  0.000      0      0  0.000  0.000  0.000  0.000  0.000  0.000  0.000    3.85   0.00   0.00      0      0  300.9   0.09   0.06    4.1   0.38    0.08    0.08    0.04    0.00    0.00    0.00    0.00    0.00    0.00        0       3
 2015 159    12    11    1.9      0  0.108     35     11      0     23     46     46      0     0.0  0.000      0      0  0.000  0.000  0.000  0.000  0.000  0.000  0.000    3.85   0.00   0.00      0      0  310.1   0.10   0.06    4.0   0.40    0.08    0.08    0.04    0.00    0.00    0.00    0.00    0.00    0.00        0       4
 2015 160    13    12    2.1      0  0.116     38     12      0     27     51     51      0     0.0  0.000      0      0  0.033  0.355  0.000  0.000  0.000  0.000  0.000    3.82   0.00   0.00      0      0  301.3   0.10   0.06    4.0   0.41    0.10    0.09    0.05    0.01    0.00    0.00    0.00    0.00    0.00        0       4
 2015 161    14    13    2.3      0  0.141     44     14      0     27     58     58      0     0.0  0.000      0      0  0.000  0.000  0.000  0.000  0.000  0.000  0.000    3.84   0.00   0.00      0      0  317.2   0.10   0.07    4.0   0.43    0.10    0.09    0.05    0.01    0.00    0.00    0.00    0.00    0.00        0       5
 2015 162    15    14    2.6      0  0.170     52     16      0     28     68     68      0     0.0  0.000      0      0  0.000  0.000  0.000  0.000  0.000  0.000  0.000    3.85   0.00   0.00      0      0  326.2   0.11   0.07    3.9   0.45    0.10    0.09    0.05    0.01    0.00    0.00    0.00    0.00    0.00        0       6
 2015 163    16    15    2.9      0  0.208     61     18      0     29     79     79      0     0.0  0.000      0      0  0.000  0.000  0.000  0.000  0.000  0.000  0.000    3.85   0.00   0.00      0      0  339.4   0.12   0.08    3.9   0.47    0.10    0.09    0.06    0.01    0.00    0.00    0.00    0.00    0.00        0       6
 2015 164    17    16    3.0      0  0.219     66     19      0     34     86     86      0     0.0  0.000      0      0  0.102  0.401  0.000  0.000  0.000  0.000  0.000    3.85   0.00   0.00      0      0  329.8   0.12   0.09    3.8   0.49    0.12    0.11    0.07    0.02    0.00    0.00    0.00    0.00    0.00        1       7
 2015 165    18    17    3.1      0  0.224     70     20      0     41     90     90      0     0.0  0.000      0      0  0.259  0.506  0.000  0.000  0.000  0.000  0.000    3.82   0.00   0.00      0      0  320.2   0.12   0.09    3.9   0.51    0.14    0.12    0.08    0.02    0.00    0.00    0.00    0.00    0.00        1       8
 2015 166    19    18    3.4      0  0.270     82     23      0     41    105    105      0     0.0  0.000      0      0  0.000  0.000  0.000  0.000  0.000  0.000  0.000    3.84   0.00   0.00      0      0  329.2   0.13   0.09    3.9   0.51    0.14    0.12    0.08    0.02    0.01    0.00    0.00    0.00    0.00        1       8
 2015 167    20    19    3.7      0  0.324     96     27      0     42    123    123      0     0.0  0.000      0      0  0.000  0.000  0.000  0.000  0.000  0.000  0.000    3.85   0.00   0.00      0      0  338.3   0.14   0.11    3.9   0.51    0.14    0.13    0.08    0.03    0.01    0.00    0.00    0.00    0.00        1       9
 2015 168    21    20    3.9      0  0.388    110     31      0     43    141    141      0     0.0  0.000      0      0  0.000  0.000  0.000  0.000  0.000  0.000  0.000    3.85   0.00   0.00      0      0  352.1   0.15   0.12    3.9   0.51    0.15    0.13    0.08    0.03    0.01    0.00    0.00    0.00    0.00        3      10
 2015 169    22    21    4.2      0  0.435    123     34      0     46    157    157      0     0.0  0.000      0      0  0.000  0.096  0.000  0.000  0.000  0.000  0.000    3.85   0.00   0.00      0      0  353.7   0.15   0.14    3.9   0.51    0.16    0.14    0.09    0.03    0.01    0.00    0.00    0.00    0.00        9      11
 2015 170    23    22    4.3      0  0.467    135     37      0     56    173    173      0     0.0  0.000      0      0  0.025  0.350  0.000  0.000  0.000  0.000  0.000    3.86   0.00   0.00      0      0  344.6   0.16   0.15    3.9   0.51    0.19    0.16    0.11    0.04    0.01    0.00    0.00    0.00    0.00        9      12
 2015 171    24    23    4.4      0  0.474    140     39      0     65    179    179      0     0.0  0.000      0      0  0.362  0.575  0.000  0.000  0.000  0.000  0.000    3.86   0.00   0.00      0      0  337.8   0.16   0.15    3.8   0.51    0.22    0.18    0.13    0.05    0.01    0.00    0.00    0.00    0.00        9      13
 2015 172    25    24    4.5      0  0.480    144     40      0     74    184    184      0     0.0  0.000      0      0  0.453  0.636  0.000  0.000  0.000  0.000  0.000    3.86   0.00   0.00      0      0  332.1   0.16   0.15    3.7   0.51    0.25    0.21    0.14    0.06    0.02    0.00    0.00    0.00    0.00        9      14
 2015 173    26    25    4.6      0  0.496    153     42      0     85    195    195      0     0.0  0.000      0      0  0.175  0.450  0.000  0.000  0.000  0.000  0.000    3.84   0.00   0.00      0      0  323.3   0.17   0.16    3.7   0.51    0.28    0.23    0.16    0.07    0.02    0.00    0.00    0.00    0.00       10      15
 2015 174    27    26    4.9      0  0.586    178     47      0     86    225    225      0     0.0  0.000      0      0  0.000  0.000  0.000  0.000  0.000  0.000  0.000    3.84   0.00   0.00      0      0  329.5   0.17   0.16    3.8   0.51    0.28    0.24    0.17    0.07    0.02    0.00    0.00    0.00    0.00       11      17
 2015 175    28    27    5.1      0  0.639    190     54      0     88    245    245      0     0.0  0.000      0      0  0.000  0.000  0.000  0.000  0.000  0.000  0.000    3.84   0.00   0.00      0      0  335.4   0.18   0.18    4.0   0.51    0.29    0.24    0.17    0.07    0.02    0.00    0.00    0.00    0.00       23      18
 2015 176    29    28    5.3      0  0.676    202     62      0     90    263    263      0     0.0  0.000      0      0  0.000  0.000  0.000  0.000  0.000  0.000  0.000    3.84   0.00   0.00      0      0  334.8   0.20   0.19    4.2   0.51    0.30    0.25    0.18    0.07    0.02    0.00    0.00    0.00    0.00       40      20
 2015 177    30    29    5.5      0  0.732    221     71      0     94    292    292      0     0.0  0.000      0      0  0.000  0.000  0.028  0.000  0.000  0.000  0.000    3.62   0.00   0.00      0      0  331.7   0.21   0.21    4.9   0.51    0.31    0.26    0.18    0.08    0.02    0.00    0.00    0.00    0.00       49      21
 2015 178    31    30    5.7      0  0.814    245     83      0     96    329    329      0     0.0  0.000      0      0  0.000  0.000  0.000  0.000  0.000  0.000  0.000    3.71   0.00   0.00      0      0  331.9   0.22   0.22    5.1   0.51    0.32    0.26    0.19    0.08    0.02    0.00    0.00    0.00    0.00       49      22
 2015 179    32    31    5.9      0  0.896    270     96      0     99    366    366      0     0.0  0.000      0      0  0.000  0.000  0.000  0.000  0.000  0.000  0.000    3.80   0.00   0.00      0      0  331.3   0.23   0.23    5.2   0.51    0.33    0.27    0.19    0.08    0.03    0.00    0.00    0.00    0.00       49      24
 2015 180    33    32    6.2      0  1.001    302    112      0    103    414    414      0     0.0  0.000      0      0  0.000  0.000  0.000  0.000  0.000  0.000  0.000    3.83   0.00   0.00      0      0  331.6   0.25   0.24    5.5   0.51    0.34    0.28    0.20    0.09    0.03    0.00    0.00    0.00    0.00       49      26
 2015 181    34    33    6.3      0  1.058    331    127      0    119    459    459      0     0.0  0.000      0      0  0.000  0.225  0.129  0.000  0.000  0.000  0.000    3.62   0.00   0.00      0      0  319.4   0.26   0.25    6.3   0.51    0.39    0.32    0.23    0.10    0.03    0.00    0.00    0.00    0.00       52      27
 2015 182    35    34    6.6      0  1.183    366    148      0    123    514    514      0     0.0  0.000      0      0  0.000  0.000  0.000  0.000  0.000  0.000  0.000    3.64   0.00   0.00      0      0  323.1   0.27   0.26    6.7   0.51    0.40    0.33    0.24    0.11    0.03    0.00    0.00    0.00    0.00       54      29
 2015 183    36    35    6.8      0  1.301    398    167      0    127    565    565      0     0.0  0.000      0      0  0.000  0.000  0.000  0.000  0.000  0.000  0.000    3.80   0.00   0.00      0      0  326.7   0.29   0.28    7.0   0.51    0.42    0.34    0.25    0.11    0.03    0.00    0.00    0.00    0.00       59      31
 2015 184    37    36    7.0      0  1.403    425    191      0    133    616    616      0     0.0  0.000      0      0  0.000  0.000  0.000  0.000  0.000  0.000  0.000    3.77   0.00   0.00      0      0  330.1   0.31   0.29    8.1   0.51    0.44    0.36    0.26    0.12    0.04    0.00    0.00    0.00    0.00       84      34
 2015 185    38    37    7.3      0  1.501    454    214      0    138    668    668      0     0.0  0.000      0      0  0.000  0.000  0.000  0.000  0.000  0.000  0.000    3.89   0.00   0.00      0      0  330.7   0.33   0.31    8.5   0.51    0.45    0.37    0.27    0.12    0.04    0.00    0.00    0.00    0.00       98      36
 2015 186    39    38    7.5      0  1.587    477    238      0    144    715    715      0     0.0  0.000      0      0  0.000  0.000  0.000  0.000  0.000  0.000  0.000    4.00   0.00   0.00      0      0  332.7   0.35   0.32    8.9   0.51    0.47    0.38    0.28    0.13    0.04    0.00    0.00    0.00    0.00      120      38
 2015 187    40    39    7.7      0  1.675    497    261      0    149    759    759      0     0.0  0.000      0      0  0.000  0.000  0.000  0.000  0.000  0.000  0.000    4.09   0.00   0.00      0      0  336.7   0.37   0.33    9.2   0.51    0.49    0.40    0.29    0.13    0.04    0.00    0.00    0.00    0.00      143      40
 2015 188    41    40    7.9      0  1.745    506    278      0    152    784    784      0     0.0  0.000      0      0  0.000  0.000  0.000  0.000  0.000  0.000  0.000    4.19   0.00   0.00      0      0  344.6   0.40   0.35    9.3   0.51    0.50    0.40    0.29    0.14    0.04    0.00    0.00    0.00    0.00      166      43
 2015 189    42    41    8.1      0  1.771    508    285      0    153    793    793      0     0.0  0.000      0      0  0.000  0.000  0.000  0.000  0.000  0.000  0.000    4.25   0.00   0.00      0      0  348.3   0.44   0.37    9.2   0.51    0.50    0.41    0.30    0.14    0.04    0.00    0.00    0.00    0.00      179      45
 2015 190    43    42    8.3      0  1.908    545    319      0    159    864    864      0     0.0  0.000      0      0  0.000  0.000  0.000  0.000  0.000  0.000  0.000    4.25   0.00   0.00      0      0  350.4   0.45   0.38    9.7   0.51    0.52    0.42    0.31    0.14    0.05    0.00    0.00    0.00    0.00      185      47
 2015 191    44    43    8.5      0  1.903    556    340      0    205    896    896      0     0.0  0.000      0      0  0.107  0.404  0.000  0.000  0.000  0.000  0.000    4.22   0.00   0.00      0      0  342.4   0.46   0.39   10.7   0.51    0.67    0.54    0.40    0.19    0.06    0.00    0.00    0.00    0.00      204      50
 2015 192    45    44    8.7      1  2.067    601    384      0    211    985    985      0     0.0  0.000      0      0  0.000  0.000  0.000  0.000  0.000  0.000  0.000    4.21   0.00   0.00      0      0  344.1   0.48   0.40   11.2   0.51    0.69    0.56    0.41    0.19    0.06    0.00    0.00    0.00    0.00      205      54
 2015 193    46    45    9.0      1  2.181    635    427      0    218   1062   1062      0     0.0  0.000      0      0  0.000  0.000  0.000  0.000  0.000  0.000  0.000    4.26   0.00   0.00      0      0  343.4   0.50   0.41   11.8   0.51    0.71    0.57    0.42    0.20    0.06    0.00    0.00    0.00    0.00      221      57
 2015 194    47    46    9.2      1  2.280    672    482      0    227   1153   1153      0     0.0  0.000      0      0  0.000  0.000  0.000  0.000  0.000  0.000  0.000    4.14   0.00   0.00      0      0  339.5   0.52   0.42   13.8   0.51    0.74    0.60    0.44    0.21    0.07    0.00    0.00    0.00    0.00      246      61
[...]
 2017 139    32    31    7.2      0  1.627    441    227      0    124    668    668      0     0.0  0.000      0      0  0.000  0.000  0.121  0.000  0.000  0.000  0.000    3.46   0.00   0.00      0      0  368.6   0.39   0.36   13.0   0.52    0.41    0.33    0.24    0.11    0.04    0.00    0.00    0.00    0.00       83      25
 2017 140    33    32    7.4      0  1.659    444    232      0    124    675    675      0     0.0  0.000      0      0  0.000  0.000  0.000  0.000  0.000  0.000  0.000    3.61   0.00   0.00      0      0  374.0   0.46   0.40   12.7   0.52    0.41    0.33    0.24    0.11    0.04    0.00    0.00    0.00    0.00       95      27
 2017 141    34    33    7.7      0  1.791    469    260      0    130    729    729      0     0.0  0.000      0      0  0.000  0.000  0.000  0.000  0.000  0.000  0.000    3.74   0.00   0.00      0      0  381.9   0.48   0.42   12.9   0.52    0.42    0.35    0.25    0.11    0.04    0.00    0.00    0.00    0.00      115      30
 2017 142    35    34    8.0      0  1.890    495    296      0    138    791    791      0     0.0  0.000      0      0  0.000  0.000  0.009  0.000  0.000  0.000  0.000    3.67   0.00   0.00      0      0  382.1   0.51   0.44   15.1   0.52    0.45    0.37    0.27    0.12    0.04    0.00    0.00    0.00    0.00      149      33
 2017 143    36    35    8.3      0  2.057    531    339      0    146    871    871      0     0.0  0.000      0      0  0.000  0.000  0.000  0.000  0.000  0.000  0.000    3.69   0.00   0.00      0      0  387.1   0.54   0.46   15.6   0.52    0.48    0.39    0.28    0.13    0.04    0.00    0.00    0.00    0.00      165      36
 2017 144    37    36    8.6      0  2.221    572    381      0    153    953    953      0     0.0  0.000      0      0  0.000  0.000  0.000  0.000  0.000  0.000  0.000    3.86   0.00   0.00      0      0  388.4   0.57   0.48   15.8   0.52    0.50    0.40    0.30    0.14    0.04    0.00    0.00    0.00    0.00      172      39
 2017 145    38    37    8.8      0  2.350    604    428      0    161   1032   1032      0     0.0  0.000      0      0  0.000  0.000  0.000  0.000  0.000  0.000  0.000    3.97   0.00   0.00      0      0  389.0   0.60   0.50   16.2   0.52    0.52    0.42    0.31    0.15    0.05    0.00    0.00    0.00    0.00      195      42
 2017 146    39    38    9.1      1  2.485    640    480      0    170   1119   1119      0     0.0  0.000      0      0  0.000  0.000  0.000  0.000  0.000  0.000  0.000    4.03   0.00   0.00      0      0  388.6   0.63   0.50   16.7   0.52    0.55    0.45    0.33    0.15    0.05    0.00    0.00    0.00    0.00      213      45
 2017 147    40    39    9.4      1  2.593    670    534      0    179   1204   1204      0     0.0  0.000      0      0  0.000  0.000  0.000  0.000  0.000  0.000  0.000    4.05   0.00   0.00      0      0  387.2   0.66   0.50   17.5   0.52    0.58    0.47    0.35    0.16    0.05    0.00    0.00    0.00    0.00      239      49
 2017 148    41    40    9.6      1  2.730    713    590      0    188   1303   1303      0     0.0  0.000      0      0  0.000  0.000  0.000  0.000  0.000  0.000  0.000    4.06   0.00   0.00      0      0  382.9   0.68   0.50   17.9   0.52    0.61    0.49    0.36    0.17    0.06    0.00    0.00    0.00    0.00      246      52
 2017 149    42    41    9.9      3  2.847    751    651      0    197   1402   1402      0     0.0  0.000      0      0  0.000  0.000  0.000  0.000  0.000  0.000  0.000    4.11   0.00   0.00      0      0  378.9   0.71   0.50   17.2   0.52    0.64    0.52    0.38    0.18    0.06    0.00    0.00    0.00    0.00      264      56
 2017 150    43    42   10.1      3  2.952    789    712      0    206   1501   1502      0     0.0  0.000      2      4  0.000  0.000  0.000  0.000  0.000  0.000  0.000    4.15   0.00   0.00      0      2  374.3   0.74   0.50   16.5   0.52    0.67    0.54    0.40    0.19    0.06    0.00    0.00    0.00    0.00      284      61
 2017 151    44    43   10.4      3  3.035    820    768      0    214   1589   1605      0     0.0  0.000     16     38  0.000  0.000  0.000  0.000  0.000  0.000  0.000    4.19   0.00   0.01      0     16  370.1   0.77   0.50   15.8   0.52    0.69    0.56    0.41    0.20    0.07    0.00    0.00    0.00    0.00      304      65
 2017 152    45    44   10.6      3  3.065    834    813      0    220   1647   1691      0     0.0  0.000     44     74  0.000  0.000  0.000  0.000  0.000  0.000  0.000    4.17   0.00   0.03      0     44  367.7   0.80   0.50   15.8   0.52    0.72    0.58    0.43    0.20    0.07    0.00    0.00    0.00    0.00      333      69
 2017 153    46    45   10.9      3  3.110    849    846      0    223   1694   1778      0     0.0  0.000     84    108  0.000  0.000  0.000  0.000  0.000  0.000  0.000    4.13   0.00   0.05      0     84  366.4   0.83   0.50   15.2   0.52    0.73    0.59    0.43    0.21    0.07    0.00    0.00    0.00    0.00      342      73
 2017 154    47    46   11.1      3  3.151    871    888      0    227   1759   1894      0     0.0  0.000    135    137  0.000  0.000  0.000  0.000  0.000  0.000  0.000    4.10   0.00   0.07      0    135  362.0   0.86   0.50   14.6   0.52    0.74    0.60    0.44    0.21    0.07    0.00    0.00    0.00    0.00      353      78
 2017 155    48    47   11.4      5  3.188    888    923      0    229   1811   2013     20     0.0  0.000    202    175  0.000  0.000  0.000  0.000  0.000  0.000  0.000    4.07   0.00   0.10      0    202  359.1   0.89   0.50   14.0   0.52    0.75    0.60    0.45    0.21    0.07    0.00    0.00    0.00    0.00      361      83
 2017 156    49    48   11.7      5  3.186    897    954      2    230   1851   2133    172     1.1  0.001    282    213  0.000  0.000  0.000  0.000  0.000  0.000  0.000    3.99   0.66   0.13      0    282  355.3   0.93   0.50   14.0   0.52    0.75    0.61    0.45    0.22    0.07    0.00    0.00    0.00    0.00      375      88
 2017 157    50    49   12.0      5  3.139    894    981     18    225   1875   2258    329     5.5  0.008    383    255  0.000  0.000  0.000  0.000  0.000  0.000  0.000    3.90   4.71   0.17      0    383  351.2   0.96   0.50   16.4   0.52    0.74    0.59    0.44    0.21    0.07    0.00    0.00    0.00    0.00      389      92
 2017 158    51    50   12.2      5  3.093    884    987     49    221   1871   2373    481    10.2  0.021    502    297  0.000  0.000  0.000  0.000  0.000  0.000  0.000    3.85   9.77   0.21      0    502  349.9   0.99   0.50   19.1   0.52    0.72    0.58    0.43    0.21    0.07    0.00    0.00    0.00    0.00      403      97
 2017 159    52    51   12.5      5  3.043    872    991     95    216   1863   2488    614    15.4  0.038    625    336  0.000  0.000  0.000  0.000  0.000  0.000  0.000    3.79  15.14   0.25      0    625  348.8   1.02   0.50   22.2   0.52    0.71    0.57    0.42    0.20    0.07    0.00    0.00    0.00    0.00      417     101
 2017 160    53    52   12.5      5  2.997    862    995    151    212   1857   2597    783    19.3  0.058    741    375  0.000  0.000  0.000  0.000  0.000  0.000  0.000    3.74  20.40   0.29      0    741  347.7   1.05   0.50   25.6   0.52    0.70    0.56    0.41    0.20    0.07    0.00    0.00    0.00    0.00      431     105
 2017 161    54    53   12.5      5  2.960    852    994    216    209   1846   2687    954    22.6  0.080    842    409  0.000  0.000  0.000  0.000  0.000  0.000  0.000    3.70  25.67   0.31      0    842  347.4   1.07   0.50   29.4   0.52    0.69    0.55    0.41    0.20    0.06    0.00    0.00    0.00    0.00      445     108
 2017 162    55    54   12.5      5  2.915    841    996    298    206   1837   2791    954    31.2  0.107    954    434  0.000  0.000  0.000  0.000  0.000  0.000  0.000    3.64  31.20   0.34      0    954  346.6   1.10   0.50   33.7   0.52    0.68    0.54    0.40    0.19    0.06    0.00    0.00    0.00    0.00      456     111
 2017 163    56    55   12.5      5  2.854    822    986    388    201   1808   2872   1031    37.7  0.135   1064    437  0.000  0.000  0.000  0.000  0.000  0.000  0.000    3.59  36.51   0.37      0   1064  347.2   1.13   0.50   38.3   0.52    0.66    0.53    0.39    0.19    0.06    0.00    0.00    0.00    0.00      494     115
 2017 164    57    56   12.5      5  2.793    802    973    486    197   1775   2952   1082    44.9  0.165   1177    402  0.000  0.000  0.000  0.000  0.000  0.000  0.000    3.53  41.30   0.40      0   1177  348.3   1.13   0.50   41.8   0.52    0.65    0.52    0.39    0.19    0.06    0.00    0.00    0.00    0.00      530     119
 2017 165    58    57   12.5      5  2.731    781    960    589    193   1742   3041   1117    52.8  0.194   1299    405  0.000  0.000  0.000  0.000  0.000  0.000  0.000    3.47  45.35   0.43      0   1299  349.5   1.13   0.50   43.8   0.52    0.64    0.51    0.38    0.18    0.06    0.00    0.00    0.00    0.00      558     123
 2017 166    59    58   12.5      5  2.673    762    949    694    189   1711   3122   1173    59.1  0.222   1411    417  0.000  0.000  0.000  0.000  0.000  0.000  0.000    3.41  49.14   0.45      0   1411  350.7   1.13   0.50   44.7   0.52    0.62    0.50    0.37    0.18    0.06    0.00    0.00    0.00    0.00      588     126
 2017 167    60    59   12.5      5  2.616    744    937    803    186   1681   3207   1217    66.0  0.250   1527    434  0.000  0.000  0.000  0.000  0.000  0.000  0.000    3.36  52.59   0.48      0   1527  351.8   1.13   0.50   45.6   0.52    0.61    0.50    0.37    0.18    0.06    0.00    0.00    0.00    0.00      613     129
 2017 168    61    60   12.5      5  2.559    725    926    916    182   1651   3294   1246    73.5  0.278   1643    442  0.000  0.019  0.000  0.000  0.000  0.000  0.000    3.29  55.75   0.50      0   1643  353.0   1.13   0.50   46.8   0.52    0.60    0.49    0.36    0.17    0.06    0.00    0.00    0.00    0.00      636     133
 2017 169    62    61   12.5      5  2.497    706    917   1026    178   1623   3371   1246    82.4  0.304   1748    436  0.218  0.478  0.000  0.000  0.000  0.000  0.000    3.22  58.72   0.52      0   1748  353.5   1.13   0.50   46.4   0.52    0.59    0.48    0.35    0.17    0.06    0.00    0.00    0.00    0.00      651     137
 2017 170    63    62   12.5      5  2.437    687    905   1144    175   1592   3459   1246    91.9  0.331   1867    400  0.000  0.000  0.000  0.000  0.000  0.000  0.000    3.14  61.29   0.54      0   1867  354.9   1.13   0.50   46.5   0.52    0.58    0.47    0.35    0.17    0.06    0.00    0.00    0.00    0.00      665     140
 2017 171    64    63   12.5      5  2.387    670    895   1255    172   1565   3541   1267    99.0  0.354   1976    387  0.000  0.000  0.000  0.000  0.000  0.000  0.000    3.08  63.52   0.56      0   1976  356.1   1.13   0.50   46.6   0.52    0.57    0.46    0.34    0.16    0.05    0.00    0.00    0.00    0.00      684     143
 2017 172    65    64   12.5      5  2.337    654    885   1370    169   1539   3627   1283   106.8  0.378   2088    381  0.000  0.000  0.000  0.000  0.000  0.000  0.000    3.02  65.61   0.58      0   2088  357.4   1.13   0.50   46.7   0.52    0.56    0.45    0.34    0.16    0.05    0.00    0.00    0.00    0.00      701     146
 2017 173    66    65   12.5      5  2.216    618    869   1485    166   1487   3688   1283   115.7  0.403   2200    402  0.000  0.000  0.000  0.000  0.000  0.000  0.000    2.95  67.48   0.60      0   2200  358.5   1.13   0.50   46.8   0.52    0.55    0.45    0.33    0.16    0.05    0.00    0.00    0.00    0.00      739     148
 2017 174    67    66   12.5      5  2.172    604    861   1600    163   1464   3775   1283   124.7  0.424   2311    372  0.000  0.000  0.000  0.000  0.000  0.000  0.000    2.89  69.25   0.61      0   2311  359.7   1.13   0.50   46.9   0.52    0.55    0.44    0.33    0.16    0.05    0.00    0.00    0.00    0.00      749     151
 2017 175    68    67   12.5      5  2.129    590    852   1712    160   1442   3862   1283   133.5  0.443   2420    342  0.000  0.000  0.000  0.000  0.000  0.000  0.000    2.82  70.76   0.63      0   2420  360.9   1.13   0.50   46.9   0.52    0.54    0.43    0.32    0.15    0.05    0.00    0.00    0.00    0.00      759     154
 2017 176    69    68   12.5      5  2.092    578    844   1816    158   1422   3941   1283   141.5  0.461   2520    346  0.000  0.000  0.000  0.000  0.000  0.000  0.000    2.76  72.08   0.64      0   2520  362.1   1.13   0.50   47.0   0.52    0.53    0.43    0.32    0.15    0.05    0.00    0.00    0.00    0.00      768     156
 2017 177    70    69   12.5      5  2.054    565    836   1916    155   1401   4017   1292   148.3  0.477   2616    330  0.000  0.000  0.000  0.000  0.000  0.000  0.000    2.70  73.25   0.65      0   2616  363.4   1.13   0.50   47.0   0.52    0.52    0.42    0.31    0.15    0.05    0.00    0.00    0.00    0.00      780     158
 2017 178    71    70   12.5      5  2.017    553    828   2014    153   1381   4092   1303   154.6  0.492   2711    318  0.000  0.083  0.000  0.000  0.000  0.000  0.000    2.64  74.30   0.66      0   2711  364.7   1.13   0.50   47.0   0.52    0.51    0.41    0.31    0.15    0.05    0.00    0.00    0.00    0.00      793     161
 2017 179    72    71   12.5      5  1.981    541    820   2110    150   1361   4165   1314   160.6  0.506   2805    308  0.000  0.000  0.000  0.000  0.000  0.000  0.000    2.58  75.22   0.67      0   2805  366.1   1.13   0.50   47.0   0.52    0.50    0.41    0.30    0.15    0.05    0.00    0.00    0.00    0.00      806     163
 2017 180    73    72   12.5      5  1.947    530    812   2207    148   1342   4243   1316   167.7  0.520   2901    312  0.000  0.000  0.000  0.000  0.000  0.000  0.000    2.51  76.06   0.68      0   2901  367.4   1.13   0.50   47.0   0.52    0.50    0.40    0.30    0.14    0.05    0.00    0.00    0.00    0.00      814     166
 2017 181    74    73   12.5      5  1.915    520    806   2296    145   1325   4313   1316   174.6  0.532   2987    317  0.000  0.000  0.000  0.000  0.000  0.000  0.000    2.45  76.87   0.69      0   2987  368.5   1.13   0.50   47.0   0.52    0.49    0.39    0.29    0.14    0.05    0.00    0.00    0.00    0.00      822     168
 2017 182    75    74   12.5      5  1.882    510    801   2376    143   1310   4385   1320   180.0  0.542   3075    314  0.000  0.000  0.000  0.000  0.000  0.000  0.000    2.39  77.27   0.70      0   3075  369.3   1.13   0.50   47.0   0.52    0.48    0.39    0.29    0.14    0.05    0.00    0.00    0.00    0.00      831     170
 2017 183    76    75   12.5      5  1.851    504    806   2437    143   1310   4455   1320   184.6  0.547   3145    316  0.000  0.121  0.000  0.000  0.000  0.000  0.000    2.33  77.49   0.71      0   3145  367.2   1.13   0.50   47.0   0.52    0.48    0.39    0.29    0.14    0.05    0.00    0.00    0.00    0.00      837     173
 2017 184    77    76   12.5      5  1.832    505    820   2478    144   1325   4515   1342   184.7  0.549   3190    312  0.000  0.000  0.000  0.000  0.000  0.000  0.000    2.33  77.70   0.71      0   3190  362.7   1.13   0.50   47.0   0.52    0.48    0.39    0.29    0.14    0.05    0.00    0.00    0.00    0.00      848     175
 2017 185    78    77   12.5      5  1.816    508    838   2507    145   1346   4568   1366   183.6  0.549   3222    310  0.000  0.000  0.000  0.000  0.000  0.000  0.000    2.33  77.82   0.71      0   3222  357.3   1.13   0.50   47.0   0.52    0.49    0.39    0.29    0.14    0.05    0.00    0.00    0.00    0.00      857     177
 2017 186    79    78   12.5      5  1.800    519    875   2514    148   1393   4626   1390   180.9  0.543   3233    308  0.000  0.000  0.000  0.000  0.000  0.000  0.000    2.34  77.76   0.70      0   3233  346.9   1.13   0.50   47.0   0.52    0.50    0.40    0.30    0.14    0.05    0.00    0.00    0.00    0.00      863     179
 2017 187    80    79   12.5      5  1.778    529    912   2522    151   1441   4687   1410   178.8  0.538   3245    308  0.000  0.000  0.000  0.000  0.000  0.000  0.000    2.33  77.70   0.69      0   3245  336.2   1.13   0.50   47.0   0.52    0.51    0.41    0.30    0.15    0.05    0.00    0.00    0.00    0.00      869     181
 2017 188    81    80   12.5      5  1.754    538    950   2530    160   1488   4748   1410   179.4  0.533   3259    308  0.000  0.104  0.000  0.000  0.000  0.000  0.000    2.30  77.63   0.69      0   3259  326.0   1.13   0.50   47.0   0.52    0.53    0.43    0.32    0.15    0.05    0.00    0.00    0.00    0.00      875     183
 2017 189    82    81   12.5      7  1.727    540    975   2539    185   1515   4787   1410   180.0  0.530   3272    308  0.198  0.466  0.119  0.000  0.000  0.000  0.000    2.24  77.59   0.68      0   3272  319.9   1.13   0.50   46.3   0.52    0.62    0.50    0.37    0.18    0.06    0.00    0.00    0.00    0.00      882     186
 2017 190    83    82   12.5      7  1.285    403    940   2547    201   1343   4624   1420   179.4  0.551   3281    307  0.497  0.665  0.000  0.000  0.000  0.000  0.000    2.14  77.63   0.71      0   3281  318.4   1.13   0.50   44.5   0.52    0.67    0.54    0.40    0.20    0.06    0.00    0.00    0.00    0.00     1058     191
 2017 191    84    83   12.5      7  0.958    312    941   2556    215   1253   4544   1425   179.5  0.563   3291    307  0.000  0.000  0.309  0.000  0.000  0.000  0.000    2.06  77.68   0.72      0   3291  307.0   1.13   0.50   44.5   0.52    0.71    0.57    0.43    0.21    0.07    0.00    0.00    0.00    0.00     1190     194
 2017 192    85    84   12.5      7  0.713    244    945   2566    220   1188   4487   1425   180.1  0.572   3299    307  0.000  0.000  0.119  0.000  0.000  0.000  0.000    2.01  77.79   0.74      0   3299  292.5   1.13   0.50   44.5   0.52    0.73    0.59    0.44    0.21    0.07    0.00    0.00    0.00    0.00     1291     197
 2017 193    86    85   12.5      7  0.532    190    943   2576    219   1133   4440   1425   180.7  0.580   3307    307  0.000  0.000  0.000  0.000  0.000  0.000  0.000    2.02  77.88   0.74      0   3307  279.7   1.13   0.50   44.5   0.52    0.73    0.59    0.44    0.21    0.07    0.00    0.00    0.00    0.00     1370     201
 2017 194    87    86   12.5      7  0.396    148    940   2585    218   1089   4404   1425   181.4  0.587   3315    307  0.000  0.000  0.000  0.000  0.000  0.000  0.000    2.02  77.99   0.75      0   3315  267.1   1.13   0.50   44.5   0.52    0.72    0.58    0.43    0.21    0.07    0.00    0.00    0.00    0.00     1432     205
 2017 195    88    87   12.5      7  0.296    115    935   2594    216   1050   4371   1425   182.0  0.593   3322    307  0.000  0.000  0.000  0.000  0.000  0.000  0.000    2.03  78.09   0.76      0   3322  256.8   1.13   0.50   42.7   0.52    0.72    0.58    0.43    0.21    0.07    0.00    0.00    0.00    0.00     1480     210
 2017 196    89    88   12.5      7  0.221     89    927   2601    213   1016   4343   1425   182.5  0.599   3327    307  0.000  0.000  0.000  0.000  0.000  0.000  0.000    2.04  78.17   0.77      0   3327  248.8   1.13   0.50   41.0   0.52    0.71    0.57    0.43    0.21    0.07    0.00    0.00    0.00    0.00     1518     215
 2017 197    90    89   12.5      7  0.165     68    919   2606    211    987   4320   1425   182.9  0.603   3332    307  0.000  0.000  0.000  0.000  0.000  0.000  0.000    2.08  78.22   0.77      0   3332  242.2   1.13   0.50   39.3   0.52    0.70    0.56    0.42    0.21    0.07    0.00    0.00    0.00    0.00     1547     220
 2017 198    91    90   12.5      8  0.124     52    911   2612    207    963   4300   1425   183.3  0.607   3337    307  0.000  0.000  0.000  0.000  0.000  0.000  0.000    2.10  78.27   0.78      0   3337  236.5   1.13   0.50   37.8   0.52    0.69    0.56    0.41    0.20    0.07    0.00    0.00    0.00    0.00     1569     225
