*PLANT N OUTPUT FILE

*DSSAT Cropping System Model Ver. 4.7.5.007 -  MAR 01, 2026 21:19:28
@YEAR DOY   DAS   DAP    CNAD    GNAD    VNAD    GN%D    VN%D     NFXC    NUPC    LNAD    SNAD    LN%D    SN%D    SHND   RN%D   NFXD   SNN0C   SNN1C
 2015 103     1     0     0.0     0.0     0.0    0.00    0.00      0.0     0.0     0.0     0.0    0.00    0.00     0.0    0.0    0.0    0.00    0.00
 2015 104     2     1     0.0     0.0     0.0    0.00    0.00      0.0     0.0     0.0     0.0    0.00    0.00     0.0    0.0    0.0    0.00    0.00
 2015 105     3     2     0.0     0.0     0.0    0.00    0.00      0.0     0.0     0.0     0.0    0.00    0.00     0.0    0.0    0.0    0.00    0.00
 2015 106     4     3     0.0     0.0     0.0    0.00    0.00      0.0     0.0     0.0     0.0    0.00    0.00     0.0    0.0    0.0    0.00    0.00
 2015 107     5     4     0.6     0.0     0.6    0.00    3.41      0.2     0.0     0.5     0.1    3.84    2.40     0.0    1.6    0.0    0.00    0.02
 2015 108     6     5     0.7     0.0     0.7    0.00    3.45      0.2     0.1     0.6     0.1    3.85    2.41     0.0    1.6    0.0    0.00    0.03
 2015 109     7     6     0.8     0.0     0.8    0.00    3.48      0.2     0.2     0.7     0.2    3.85    2.41     0.0    1.6    0.0    0.00    0.04
 2015 110     8     7     1.0     0.0     1.0    0.00    3.47      0.2     0.3     0.8     0.2    3.81    2.39     0.0    1.6    0.0    0.00    0.05
 2015 111     9     8     1.1     0.0     1.1    0.00    3.43      0.2     0.4     0.9     0.2    3.78    2.36     0.0    1.6    0.0    0.01    0.07
 2015 112    10     9     1.3     0.0     1.3    0.00    3.46      0.2     0.6     1.1     0.2    3.83    2.42     0.0    1.6    0.0    0.01    0.08
 2015 113    11    10     1.5     0.0     1.5    0.00    3.45      0.4     0.7     1.3     0.3    3.80    2.39     0.0    1.6    0.1    0.01    0.09
 2015 114    12    11     1.8     0.0     1.8    0.00    3.44      0.4     0.9     1.5     0.3    3.78    2.37     0.0    1.6    0.1    0.01    0.09
 2015 115    13    12     2.2     0.0     2.2    0.00    3.44      0.4     1.2     1.8     0.4    3.78    2.36     0.0    1.5    0.0    0.02    0.11
 2015 116    14    13     2.6     0.0     2.6    0.00    3.43      0.7     1.4     2.1     0.4    3.76    2.35     0.0    1.5    0.2    0.02    0.11
 2015 117    15    14     2.9     0.0     2.9    0.00    3.45      0.8     1.7     2.5     0.5    3.79    2.36     0.0    1.6    0.2    0.03    0.12
 2015 118    16    15     3.2     0.0     3.2    0.00    3.24      1.1     1.8     2.7     0.5    3.55    2.22     0.0    1.5    0.2    0.04    0.13
 2015 119    17    16     3.8     0.0     3.8    0.00    3.29      1.2     2.3     3.2     0.6    3.60    2.25     0.0    1.5    0.1    0.05    0.14
 2015 120    18    17     3.8     0.0     3.8    0.00    3.29      1.2     2.3     3.2     0.6    3.60    2.25     0.0    1.5    0.0    0.05    0.15
 2015 121    19    18     4.4     0.0     4.4    0.00    3.29      1.2     3.0     3.7     0.7    3.60    2.25     0.0    1.5    0.0    0.05    0.17
 2015 122    20    19     5.3     0.0     5.3    0.00    3.46      1.2     4.1     4.5     0.8    3.78    2.37     0.0    1.6    0.0    0.05    0.19
 2015 123    21    20     5.9     0.0     5.9    0.00    3.49      1.2     5.1     4.9     0.9    3.82    2.40     0.0    1.6    0.0    0.05    0.21
 2015 124    22    21     6.6     0.0     6.6    0.00    3.46      1.4     5.7     5.6     1.0    3.78    2.37     0.0    1.6    0.2    0.07    0.22
 2015 125    23    22     7.4     0.0     7.4    0.00    3.26      1.7     6.2     6.2     1.2    3.57    2.24     0.0    1.6    0.2    0.09    0.24
 2015 126    24    23     7.9     0.0     7.9    0.00    3.09      2.0     6.5     6.6     1.2    3.38    2.12     0.0    1.5    0.3    0.10    0.25
 2015 127    25    24     8.8     0.0     8.8    0.00    2.95      2.4     7.2     7.3     1.5    3.26    2.01     0.0    1.5    0.3    0.19    0.27
 2015 128    26    25    10.3     0.0    10.3    0.00    2.98      2.5     8.7     8.4     1.9    3.30    2.07     0.0    1.5    0.1    0.21    0.29
 2015 129    27    26    12.4     0.0    12.4    0.00    3.15      2.5    11.0    10.0     2.4    3.49    2.25     0.0    1.5    0.0    0.21    0.31
 2015 130    28    27    13.9     0.0    13.9    0.00    3.31      2.5    13.6    11.1     2.8    3.66    2.41     0.0    1.9    0.0    0.21    0.35
 2015 131    29    28    14.5     0.0    14.5    0.00    3.27      3.0    13.9    11.5     3.0    3.63    2.36     0.0    1.9    0.4    0.32    0.38
 2015 132    30    29    15.9     0.0    15.9    0.00    3.26      3.5    15.0    12.5     3.4    3.65    2.35     0.0    1.8    0.4    0.41    0.41
 2015 133    31    30    17.5     0.0    17.5    0.00    3.27      3.6    16.8    13.7     3.9    3.67    2.35     0.0    1.8    0.1    0.53    0.44
 2015 134    32    31    17.8     0.0    17.8    0.00    3.09      4.2    17.3    13.7     4.0    3.51    2.21     0.0    1.7    0.5    1.11    0.47
 2015 135    33    32    18.8     0.0    18.8    0.00    2.95      4.9    18.0    14.4     4.4    3.37    2.10     0.0    1.6    0.6    1.14    0.51
 2015 136    34    33    20.6     0.0    20.6    0.00    2.98      5.2    19.8    15.6     5.0    3.42    2.13     0.0    1.6    0.2    1.29    0.54
 2015 137    35    34    23.5     0.0    23.5    0.00    3.10      5.2    23.0    17.6     5.9    3.57    2.23     0.0    1.6    0.0    1.46    0.60
 2015 138    36    35    27.2     0.0    27.2    0.00    3.33      5.2    27.3    20.0     7.2    3.85    2.44     0.0    1.7    0.0    1.76    0.66
 2015 139    37    36    28.7     0.0    28.7    0.00    3.37      5.9    29.2    20.8     7.9    3.95    2.44     0.0    1.6    0.7    2.18    0.71
 2015 140    38    37    31.5     0.0    31.5    0.00    3.36      6.0    32.4    22.6     8.9    3.95    2.43     0.0    1.6    0.0    2.25    0.77
 2015 141    39    38    34.6     0.0    34.6    0.00    3.37      6.0    35.8    24.5    10.1    3.99    2.44     0.0    1.6    0.0    2.39    0.84
 2015 142    40    39    36.3     0.0    36.3    0.00    3.25      7.0    37.1    25.4    10.9    3.91    2.34     0.0    1.6    0.9    2.65    0.89
 2015 143    41    40    39.4     0.0    39.4    0.00    3.26      7.0    40.5    27.2    12.2    3.93    2.36     0.0    1.6    0.0    2.77    0.97
 2015 144    42    41    43.0     0.0    43.0    0.00    3.28      7.1    44.6    29.2    13.7    3.99    2.38     0.0    1.6    0.0    2.92    1.06
 2015 145    43    42    46.7     0.0    46.7    0.00    3.30      7.1    48.8    31.3    15.3    4.04    2.40     0.0    1.6    0.0    3.14    1.14
 2015 146    44    43    47.6     0.0    47.6    0.00    3.22      8.1    50.0    31.7    15.9    3.99    2.32     0.0    1.5    0.9    3.46    1.22
 2015 147    45    44    51.5     0.0    51.3    0.00    3.22      8.1    54.1    33.7    17.5    4.00    2.34     3.5    1.5    0.0    3.52    1.36
 2015 148    46    45    55.2     0.0    54.3    0.00    3.26      8.1    58.8    35.4    18.9    4.07    2.37     3.5    1.5    0.0    3.70    1.47
 2015 149    47    46    58.7     0.0    56.8    0.00    3.28      8.1    62.9    36.8    20.0    4.12    2.39     3.5    1.5    0.0    3.89    1.59
 2015 150    48    47    62.3     0.0    59.1    0.00    3.30      8.1    67.1    38.1    21.0    4.16    2.40     3.5    1.5    0.0    4.06    1.70
 2015 151    49    48    65.3     0.0    60.4    0.00    3.30      8.1    71.2    38.7    21.7    4.19    2.39     3.5    1.6    0.0    4.22    1.82
 2015 152    50    49    66.8     0.0    59.9    0.00    3.26      8.1    73.3    38.3    21.6    4.16    2.35     3.5    1.5    0.0    4.41    1.95
 2015 153    51    50    70.6     0.0    61.3    0.00    3.25      8.1    77.5    39.0    22.3    4.16    2.35     3.5    1.6    0.0    4.69    2.09
 2015 154    52    51    74.7     0.3    62.5    3.63    3.27      8.1    82.4    39.6    22.9    4.18    2.37     3.5    1.6    0.0    5.08    2.23
 2015 155    53    52    78.3     1.0    62.3    3.62    3.26      8.1    86.4    39.4    22.9    4.18    2.36     3.5    1.6    0.0    5.50    2.36
 2015 156    54    53    79.0     2.1    59.9    3.61    3.13      9.0    87.7    37.6    22.2    4.09    2.24     3.5    1.5    0.8    6.99    2.46
 2015 157    55    54    82.0     4.0    58.3    3.62    3.09     10.1    90.1    36.6    21.7    4.05    2.21     3.4    1.5    0.9    7.28    2.55
 2015 158    56    55    84.9     6.4    56.7    3.62    3.05     10.6    93.1    35.6    21.2    4.02    2.17     3.4    1.5    0.5    7.54    2.65
 2015 159    57    56    87.7     9.1    55.2    3.62    3.01     11.7    95.3    34.5    20.6    3.98    2.14     3.4    1.5    1.1    7.82    2.73
 2015 160    58    57    88.8    12.4    53.5    3.62    2.87     13.1    95.8    33.4    20.1    3.87    2.01     3.3    1.5    1.2    8.44    2.82
 2015 161    59    58    90.9    16.1    51.7    3.61    2.82     14.6    96.7    32.2    19.5    3.82    1.97     3.2    1.4    1.4    8.60    2.90
 2015 162    60    59    93.1    19.8    49.7    3.62    2.77     16.3    98.1    30.9    18.8    3.76    1.93     3.2    1.4    1.5    9.19    2.98
 2015 163    61    60    94.6    23.8    47.7    3.62    2.67     18.1    98.3    29.6    18.1    3.67    1.85     3.1    1.4    1.7    9.60    3.06
 2015 164    62    61    96.6    27.6    45.8    3.62    2.61     20.2    98.9    28.3    17.5    3.61    1.80     3.1    1.4    1.9   10.11    3.13
 2015 165    63    62    98.5    31.6    43.9    3.62    2.55     22.3    99.6    27.1    16.8    3.55    1.76     3.0    1.4    2.1   10.77    3.20
 2015 166    64    63   100.4    35.8    42.0    3.62    2.49     24.0   100.6    25.8    16.2    3.48    1.71     2.9    1.3    1.7   11.41    3.27
 2015 167    65    64   102.6    40.2    40.2    3.62    2.43     26.0   101.3    24.6    15.6    3.41    1.67     2.9    1.3    2.0   11.69    3.34
 2015 168    66    65   104.7    44.7    38.3    3.63    2.37     27.6   102.0    23.4    15.0    3.34    1.63     2.8    1.3    1.6   11.85    3.41
 2015 169    67    66   106.8    49.1    36.5    3.63    2.30     29.4   102.7    22.2    14.4    3.26    1.58     2.7    1.3    1.8   12.13    3.47
 2015 170    68    67   109.0    53.6    34.9    3.63    2.24     31.2   103.5    21.1    13.8    3.19    1.54     2.7    1.3    1.7   12.38    3.53
 2015 171    69    68   111.2    57.9    33.5    3.63    2.19     33.0   104.0    20.1    13.3    3.12    1.51     2.6    1.2    1.8   12.50    3.58
 2015 172    70    69   113.1    61.8    32.1    3.61    2.13     34.3   104.6    19.2    12.9    3.05    1.46     2.5    1.2    1.4   12.62    3.65
 2015 173    71    70   115.4    66.0    30.7    3.61    2.07     36.1   105.2    18.3    12.4    2.98    1.43     2.5    1.2    1.8   12.74    3.70
 2015 174    72    71   117.7    70.3    29.4    3.60    2.02     37.9   105.9    17.4    12.0    2.91    1.39     2.4    1.2    1.7   12.85    3.75
 2015 175    73    72   119.9    74.2    28.1    3.60    1.96     39.7   106.2    16.6    11.6    2.84    1.36     2.4    1.2    1.9   12.96    3.79
 2015 176    74    73   121.4    77.5    26.9    3.58    1.91     41.0   106.7    15.7    11.2    2.77    1.33     2.3    1.2    1.2   13.13    3.86
 2015 177    75    74   122.4    80.2    25.7    3.57    1.85     41.6   107.1    15.0    10.8    2.70    1.29     2.2    1.2    0.7   13.23    3.93
 2015 178    76    75   124.4    83.5    24.8    3.56    1.81     43.2   107.5    14.3    10.5    2.64    1.27     2.2    1.1    1.6   13.31    3.97
 2015 179    77    76   126.3    86.8    23.9    3.56    1.76     44.8   108.0    13.8    10.2    2.57    1.24     2.1    1.1    1.5   13.39    4.00
 2015 180    78    77   128.3    90.1    23.0    3.56    1.72     46.6   108.4    13.0     9.9    2.51    1.21     2.1    1.1    1.8   13.64    4.04
 2015 181    79    78   128.7    92.3    21.6    3.56    1.64     47.2   108.7    12.0     9.6    2.42    1.17     2.0    1.1    0.6   14.19    4.11
 2015 182    80    79   128.6    93.4    20.9    3.56    1.60     47.2   109.0    11.5     9.4    2.36    1.14     2.0    1.2    0.0   14.27    4.23
 2015 183    81    80   128.3    94.1    20.2    3.56    1.56     47.2   109.4    11.1     9.2    2.30    1.12     2.0    1.2    0.0   14.34    4.35
 2015 184    82    81   127.9    94.2    19.9    3.56    1.53     47.2   109.7    10.8     9.1    2.27    1.11     1.9    1.2    0.0   14.38    4.47
 2015 185    83    82   124.5    94.2    16.6    3.56    1.45     47.2   110.0     8.0     8.6    2.24    1.10     1.9    1.2    0.0   17.48    4.59
 2015 186    84    83   122.0    94.2    14.3    3.56    1.38     47.2   110.3     5.9     8.3    2.22    1.09     1.9    1.2    0.0   19.78    4.71
 2015 187    85    84   120.1    94.2    12.5    3.56    1.32     47.2   110.6     4.4     8.1    2.20    1.08     1.9    1.3    0.0   21.48    4.83
 2015 188    86    85   118.8    94.2    11.4    3.56    1.27     47.2   110.9     3.4     8.0    2.20    1.08     1.9    1.2    0.0   22.75    4.96
 2015 189    87    86   118.0    94.2    10.6    3.56    1.25     47.2   111.2     2.6     7.9    2.24    1.09     1.9    1.2    0.0   23.73    5.06
 2015 190    88    87   117.3    94.2     9.9    3.56    1.22     47.2   111.5     2.0     7.9    2.26    1.09     1.9    1.3    0.0   24.49    5.17
 2015 191    89    88   116.7    94.2     9.4    3.56    1.20     47.2   111.8     1.6     7.8    2.28    1.09     1.9    1.3    0.0   25.07    5.30
 2015 192    90    89   116.4    94.2     9.0    3.56    1.18     47.2   112.0     1.2     7.8    2.32    1.10     1.9    1.3    0.0   25.52    5.44
 2015 193    91    90   116.1    94.2     8.8    3.56    1.17     47.2   112.2     0.9     7.8    2.37    1.10     1.9    1.3    0.0   25.86    5.59

*DSSAT Cropping System Model Ver. 4.7.5.007 -  MAR 01, 2026 21:19:28
@YEAR DOY   DAS   DAP    CNAD    GNAD    VNAD    GN%D    VN%D     NFXC    NUPC    LNAD    SNAD    LN%D    SN%D    SHND   RN%D   NFXD   SNN0C   SNN1C
 2015 126     1     0     0.0     0.0     0.0    0.00    0.00      0.0     0.0     0.0     0.0    0.00    0.00     0.0    0.0    0.0    0.00    0.00
 2015 127     2     1     0.0     0.0     0.0    0.00    0.00      0.0     0.0     0.0     0.0    0.00    0.00     0.0    0.0    0.0    0.00    0.00
 2015 128     3     2     0.0     0.0     0.0    0.00    0.00      0.0     0.0     0.0     0.0    0.00    0.00     0.0    0.0    0.0    0.00    0.00
 2015 129     4     3     0.0     0.0     0.0    0.00    0.00      0.0     0.0     0.0     0.0    0.00    0.00     0.0    0.0    0.0    0.00    0.00
 2015 130     5     4     0.6     0.0     0.6    0.00    3.41      0.2     0.0     0.5     0.1    3.84    2.40     0.0    1.6    0.0    0.00    0.01
 2015 131     6     5     0.7     0.0     0.7    0.00    3.43      0.2     0.0     0.5     0.1    3.85    2.41     0.0    1.6    0.0    0.00    0.03
 2015 132     7     6     0.8     0.0     0.8    0.00    3.46      0.2     0.1     0.6     0.1    3.85    2.41     0.0    1.6    0.0    0.00    0.04
 2015 133     8     7     0.9     0.0     0.9    0.00    3.48      0.2     0.2     0.7     0.2    3.85    2.41     0.0    1.6    0.0    0.00    0.05
 2015 134     9     8     1.0     0.0     1.0    0.00    3.50      0.2     0.4     0.8     0.2    3.85    2.42     0.0    1.6    0.0    0.00    0.06
 2015 135    10     9     1.1     0.0     1.1    0.00    3.48      0.3     0.4     0.9     0.2    3.82    2.39     0.0    1.6    0.0    0.00    0.07
 2015 136    11    10     1.2     0.0     1.2    0.00    3.48      0.3     0.6     1.0     0.2    3.84    2.41     0.0    1.6    0.0    0.00    0.08
 2015 137    12    11     1.4     0.0     1.4    0.00    3.46      0.3     0.8     1.1     0.3    3.84    2.41     0.0    1.6    0.0    0.00    0.09
 2015 138    13    12     1.6     0.0     1.6    0.00    3.48      0.3     1.0     1.3     0.3    3.85    2.42     0.0    1.6    0.0    0.00    0.10
 2015 139    14    13     1.9     0.0     1.9    0.00    3.46      0.3     1.2     1.6     0.3    3.81    2.39     0.0    1.6    0.1    0.01    0.11
 2015 140    15    14     2.2     0.0     2.2    0.00    3.45      0.4     1.5     1.8     0.4    3.79    2.37     0.0    1.6    0.0    0.01    0.12
 2015 141    16    15     2.6     0.0     2.6    0.00    3.50      0.4     1.9     2.2     0.4    3.84    2.40     0.0    1.6    0.0    0.01    0.13
 2015 142    17    16     2.9     0.0     2.9    0.00    3.36      0.6     2.1     2.4     0.5    3.69    2.31     0.0    1.5    0.2    0.02    0.14
 2015 143    18    17     3.4     0.0     3.4    0.00    3.36      0.7     2.4     2.8     0.5    3.68    2.30     0.0    1.5    0.1    0.03    0.14
 2015 144    19    18     4.0     0.0     4.0    0.00    3.47      0.7     3.2     3.4     0.6    3.79    2.38     0.0    1.6    0.0    0.03    0.16
 2015 145    20    19     4.4     0.0     4.4    0.00    3.49      0.7     3.9     3.7     0.7    3.82    2.40     0.0    1.6    0.0    0.03    0.17
 2015 146    21    20     4.6     0.0     4.6    0.00    3.51      0.7     4.4     3.9     0.7    3.83    2.41     0.0    1.6    0.0    0.03    0.19
 2015 147    22    21     5.0     0.0     5.0    0.00    3.48      0.9     4.8     4.2     0.8    3.80    2.38     0.0    1.6    0.2    0.04    0.21
 2015 148    23    22     5.8     0.0     5.8    0.00    3.51      0.9     5.7     4.9     0.9    3.83    2.40     0.0    1.6    0.0    0.04    0.24
 2015 149    24    23     6.3     0.0     6.3    0.00    3.42      1.2     6.2     5.3     1.0    3.73    2.34     0.0    1.6    0.2    0.19    0.25
 2015 150    25    24     7.0     0.0     7.0    0.00    3.50      1.2     7.3     5.9     1.1    3.81    2.40     0.0    1.6    0.0    0.55    0.27
 2015 151    26    25     8.1     0.0     8.1    0.00    3.52      1.2     8.5     6.8     1.2    3.83    2.41     0.0    1.6    0.0    0.65    0.30
 2015 152    27    26     9.0     0.0     9.0    0.00    3.43      1.5     9.3     7.5     1.5    3.77    2.35     0.0    1.6    0.3    0.67    0.31
 2015 153    28    27    10.4     0.0    10.4    0.00    3.44      1.5    10.8     8.6     1.8    3.79    2.38     0.0    1.6    0.0    0.67    0.34
 2015 154    29    28    12.0     0.0    12.0    0.00    3.45      1.5    12.6     9.8     2.2    3.83    2.41     0.0    1.6    0.0    0.67    0.36
 2015 155    30    29    13.0     0.0    13.0    0.00    3.45      1.5    14.3    10.5     2.5    3.84    2.42     0.0    1.6    0.0    0.67    0.39
 2015 156    31    30    13.5     0.0    13.5    0.00    3.42      1.8    15.2    10.9     2.6    3.80    2.40     0.0    1.6    0.2    0.70    0.42
 2015 157    32    31    15.4     0.0    15.4    0.00    3.43      1.8    17.4    12.4     3.1    3.83    2.42     0.0    1.6    0.0    0.70    0.46
 2015 158    33    32    17.5     0.0    17.5    0.00    3.46      1.8    19.7    13.9     3.6    3.89    2.44     0.0    1.6    0.0    0.79    0.50
 2015 159    34    33    19.2     0.0    19.2    0.00    3.51      1.8    22.0    15.1     4.1    3.96    2.47     0.0    1.6    0.0    1.14    0.54
 2015 160    35    34    19.5     0.0    19.5    0.00    3.47      2.2    23.1    15.2     4.3    3.94    2.44     0.0    1.6    0.3    1.78    0.58
 2015 161    36    35    21.7     0.0    21.7    0.00    3.46      2.2    25.5    16.7     4.9    3.94    2.44     0.0    1.6    0.0    1.78    0.63
 2015 162    37    36    24.1     0.0    24.1    0.00    3.50      2.3    28.3    18.4     5.7    4.02    2.47     0.0    1.6    0.0    1.95    0.69
 2015 163    38    37    25.5     0.0    25.5    0.00    3.40      2.8    29.6    19.3     6.2    3.95    2.36     0.0    1.5    0.5    2.28    0.74
 2015 164    39    38    27.8     0.0    27.8    0.00    3.46      2.9    33.0    20.8     7.0    4.05    2.41     0.0    1.5    0.0    2.79    0.80
 2015 165    40    39    30.6     0.0    30.6    0.00    3.48      2.9    36.1    22.6     8.0    4.11    2.44     0.0    1.6    0.0    2.95    0.86
 2015 166    41    40    33.6     0.0    33.6    0.00    3.51      2.9    39.5    24.5     9.1    4.16    2.46     0.0    1.6    0.0    3.13    0.92
 2015 167    42    41    34.8     0.0    34.8    0.00    3.37      3.7    40.5    25.1     9.7    4.05    2.35     0.0    1.5    0.7    3.39    0.98
 2015 168    43    42    37.7     0.0    37.7    0.00    3.36      3.7    43.7    26.9    10.9    4.06    2.36     0.0    1.5    0.0    3.49    1.05
 2015 169    44    43    41.1     0.0    41.1    0.00    3.39      3.7    47.6    28.9    12.2    4.11    2.39     0.0    1.5    0.0    3.63    1.12
 2015 170    45    44    42.5     0.0    42.5    0.00    3.25      4.7    48.7    29.6    12.9    4.00    2.27     0.0    1.5    0.8    3.93    1.19
 2015 171    46    45    45.3     0.0    45.2    0.00    3.23      4.7    51.8    31.1    14.1    4.00    2.27     3.5    1.5    0.0    4.07    1.28
 2015 172    47    46    49.1     0.0    48.6    0.00    3.28      4.7    56.5    33.2    15.5    4.06    2.32     3.5    1.5    0.0    4.18    1.38
 2015 173    48    47    52.7     0.0    51.5    0.00    3.32      4.7    60.8    34.8    16.7    4.13    2.36     3.5    1.5    0.0    4.39    1.48
 2015 174    49    48    54.0     0.0    51.7    0.00    3.19      5.7    61.7    34.8    17.0    4.04    2.23     3.5    1.5    0.9    4.68    1.55
 2015 175    50    49    56.4     0.0    52.6    0.00    3.12      5.9    64.0    35.1    17.5    3.98    2.18     3.5    1.5    0.2    4.78    1.61
 2015 176    51    50    60.1     0.0    54.3    0.00    3.12      5.9    67.9    36.1    18.3    3.98    2.19     3.5    1.5    0.0    4.82    1.72
 2015 177    52    51    61.9     0.0    54.0    0.00    3.04      7.1    68.9    35.7    18.3    3.91    2.11     3.5    1.5    1.0    5.03    1.78
 2015 178    53    52    64.0     0.1    53.7    3.54    2.97      7.2    71.3    35.4    18.3    3.85    2.06     3.4    1.5    0.1    5.38    1.84
 2015 179    54    53    66.9     0.5    53.6    3.54    2.96      7.2    74.6    35.3    18.3    3.83    2.05     3.4    1.5    0.0    5.75    1.94
 2015 180    55    54    69.9     1.2    52.9    3.56    2.93      7.2    77.9    34.7    18.2    3.80    2.03     3.4    1.5    0.0    6.15    2.05
 2015 181    56    55    70.8     2.3    51.8    3.56    2.78      8.4    78.3    34.0    17.8    3.70    1.89     3.4    1.5    1.1    6.70    2.11
 2015 182    57    56    72.7     3.9    50.5    3.57    2.73      9.8    79.4    33.1    17.4    3.64    1.84     3.4    1.4    1.2    7.16    2.17
 2015 183    58    57    75.5     6.0    49.3    3.58    2.69     11.4    81.1    32.2    17.0    3.61    1.82     3.3    1.4    1.4    7.56    2.23
 2015 184    59    58    77.4     8.4    48.0    3.58    2.62     13.3    81.9    31.3    16.6    3.54    1.76     3.3    1.4    1.6    8.06    2.29
 2015 185    60    59    79.7    11.1    46.6    3.58    2.58     15.3    83.2    30.4    16.2    3.50    1.73     3.3    1.4    1.9    8.71    2.35
 2015 186    61    60    81.8    14.1    45.3    3.58    2.55     16.6    84.8    29.5    15.8    3.46    1.71     3.2    1.4    1.3    9.28    2.41
 2015 187    62    61    84.0    17.1    44.0    3.58    2.51     17.5    86.3    28.6    15.4    3.42    1.68     3.2    1.4    0.9    9.40    2.46
 2015 188    63    62    85.2    20.2    42.7    3.57    2.47     17.5    87.6    27.7    15.0    3.37    1.66     3.1    1.4    0.0    9.51    2.58
 2015 189    64    63    85.1    21.8    41.5    3.57    2.44     17.5    87.6    26.9    14.6    3.33    1.63     3.1    1.3    0.0    9.62    2.69
 2015 190    65    64    86.9    25.0    40.0    3.58    2.39     19.0    88.9    25.8    14.2    3.27    1.60     3.0    1.3    1.5   10.05    2.74
 2015 191    66    65    88.6    28.1    38.5    3.56    2.33     20.6    89.7    24.8    13.7    3.21    1.56     3.0    1.3    1.5   10.69    2.81
 2015 192    67    66    90.6    31.6    36.9    3.56    2.28     22.5    90.7    23.7    13.2    3.14    1.52     2.9    1.3    1.9   11.27    2.86
 2015 193    68    67    92.6    35.1    35.4    3.57    2.23     24.3    91.6    22.7    12.8    3.08    1.49     2.9    1.3    1.8   11.83    2.90
 2015 194    69    68    94.2    38.6    34.0    3.54    2.16     26.3    91.8    21.7    12.3    3.01    1.45     2.8    1.3    1.9   12.33    2.95
 2015 195    70    69    96.6    42.4    32.7    3.53    2.11     28.6    92.2    20.8    11.9    2.94    1.41     2.8    1.2    2.1   12.45    2.99
 2015 196    71    70    99.1    46.3    31.4    3.54    2.06     30.8    92.8    19.9    11.5    2.88    1.38     2.7    1.2    2.2   12.57    3.04
 2015 197    72    71   101.4    50.3    30.1    3.54    2.01     32.8    93.4    19.0    11.1    2.82    1.35     2.7    1.2    2.0   12.88    3.08
 2015 198    73    72   103.6    54.2    29.0    3.54    1.95     34.9    93.7    18.2    10.8    2.74    1.31     2.6    1.2    2.0   12.99    3.13
 2015 199    74    73   105.8    58.0    27.9    3.54    1.90     37.1    94.1    17.5    10.5    2.68    1.28     2.5    1.2    2.2   13.23    3.17
 2015 200    75    74   108.4    62.0    26.8    3.54    1.86     39.3    94.6    16.7    10.1    2.62    1.26     2.5    1.2    2.2   13.33    3.20
 2015 201    76    75   110.8    66.1    25.7    3.55    1.81     41.5    95.2    15.9     9.8    2.56    1.23     2.4    1.2    2.3   13.68    3.24
 2015 202    77    76   113.2    70.1    24.7    3.55    1.76     43.4    95.8    15.2     9.5    2.49    1.20     2.4    1.1    1.8   13.78    3.29
 2015 203    78    77   113.7    72.7    23.4    3.54    1.70     43.5    96.3    14.3     9.1    2.40    1.16     2.3    1.1    0.1   13.90    3.38
 2015 204    79    78   114.1    75.2    22.1    3.54    1.64     43.6    96.7    13.4     8.7    2.31    1.13     2.2    1.1    0.1   14.01    3.47
 2015 205    80    79   116.4    78.9    21.2    3.54    1.59     45.5    97.2    12.8     8.4    2.25    1.10     2.2    1.1    1.9   14.09    3.51
 2015 206    81    80   118.7    82.6    20.3    3.54    1.54     47.3    97.7    12.2     8.2    2.18    1.07     2.1    1.1    1.9   14.17    3.54
 2015 207    82    81   120.0    86.2    18.6    3.54    1.47     49.1    98.3    10.8     7.8    2.10    1.04     2.0    1.1    1.7   15.22    3.58
 2015 208    83    82   119.9    88.2    16.9    3.52    1.41     49.7    98.5     9.4     7.4    2.03    1.02     2.0    1.1    0.6   16.16    3.66
 2015 209    84    83   121.2    90.5    16.3    3.52    1.38     50.7    98.8     9.1     7.3    1.98    1.00     1.9    1.1    1.1   16.20    3.69
 2015 210    85    84   122.8    92.7    16.1    3.51    1.36     52.0    99.2     8.9     7.3    1.95    1.00     1.9    1.1    1.3   16.25    3.72
 2015 211    86    85   123.2    94.0    15.6    3.50    1.27     52.0    99.6     8.5     7.1    1.85    0.93     1.9    1.1    0.0   16.30    3.75
 2015 212    87    86   120.6    94.5    12.9    3.50    1.19     52.0   100.1     6.1     6.7    1.79    0.91     1.8    1.1    0.0   18.74    3.82
 2015 213    88    87   118.6    94.8    10.9    3.50    1.12     52.0   100.6     4.5     6.5    1.74    0.90     1.8    1.1    0.0   20.51    3.89
 2015 214    89    88   117.2    94.8     9.7    3.50    1.08     52.0   101.1     3.4     6.3    1.73    0.90     1.7    1.1    0.0   21.81    4.01
 2015 215    90    89   116.3    94.8     8.8    3.50    1.05     52.0   101.5     2.6     6.2    1.75    0.90     1.7    1.2    0.0   22.78    4.13
 2015 216    91    90   115.6    94.8     8.2    3.50    1.03     52.0   102.0     2.0     6.2    1.78    0.91     1.7    1.2    0.0   23.53    4.25
 2015 217    92    91   115.1    94.8     7.7    3.50    1.02     52.0   102.3     1.5     6.1    1.82    0.92     1.7    1.2    0.0   24.10    4.37
 2015 218    93    92   114.8    94.8     7.3    3.50    1.01     52.0   102.6     1.2     6.1    1.86    0.93     1.7    1.2    0.0   24.55    4.48
 2015 219    94    93   114.5    94.8     7.1    3.50    1.01     52.0   102.8     0.9     6.1    1.92    0.94     1.7    1.2    0.0   24.89    4.60
 2015 220    95    94   114.3    94.8     6.9    3.50    1.00     52.0   102.9     0.7     6.1    1.98    0.95     1.7    1.2    0.0   25.16    4.72

*DSSAT Cropping System Model Ver. 4.7.5.007 -  MAR 01, 2026 21:19:28
@YEAR DOY   DAS   DAP    CNAD    GNAD    VNAD    GN%D    VN%D     NFXC    NUPC    LNAD    SNAD    LN%D    SN%D    SHND   RN%D   NFXD   SNN0C   SNN1C
 2015 148     1     0     0.0     0.0     0.0    0.00    0.00      0.0     0.0     0.0     0.0    0.00    0.00     0.0    0.0    0.0    0.00    0.00
 2015 149     2     1     0.0     0.0     0.0    0.00    0.00      0.0     0.0     0.0     0.0    0.00    0.00     0.0    0.0    0.0    0.00    0.00
 2015 150     3     2     0.0     0.0     0.0    0.00    0.00      0.0     0.0     0.0     0.0    0.00    0.00     0.0    0.0    0.0    0.00    0.00
 2015 151     4     3     0.0     0.0     0.0    0.00    0.00      0.0     0.0     0.0     0.0    0.00    0.00     0.0    0.0    0.0    0.00    0.00
 2015 152     5     4     0.6     0.0     0.6    0.00    3.41      0.2     0.0     0.5     0.1    3.84    2.40     0.0    1.6    0.0    0.00    0.01
 2015 153     6     5     0.7     0.0     0.7    0.00    3.44      0.2     0.1     0.6     0.1    3.85    2.41     0.0    1.6    0.0    0.00    0.03
 2015 154     7     6     0.8     0.0     0.8    0.00    3.47      0.2     0.2     0.7     0.1    3.85    2.41     0.0    1.6    0.0    0.00    0.04
 2015 155     8     7     0.9     0.0     0.9    0.00    3.45      0.2     0.3     0.8     0.2    3.80    2.38     0.0    1.6    0.0    0.00    0.05
 2015 156     9     8     1.1     0.0     1.1    0.00    3.50      0.2     0.5     0.9     0.2    3.84    2.40     0.0    1.6    0.0    0.00    0.06
 2015 157    10     9     1.2     0.0     1.2    0.00    3.50      0.2     0.6     1.0     0.2    3.84    2.40     0.0    1.6    0.0    0.00    0.07
 2015 158    11    10     1.4     0.0     1.4    0.00    3.48      0.2     0.8     1.1     0.2    3.85    2.41     0.0    1.6    0.0    0.00    0.09
 2015 159    12    11     1.6     0.0     1.6    0.00    3.49      0.2     1.1     1.3     0.3    3.85    2.41     0.0    1.6    0.0    0.00    0.10
 2015 160    13    12     1.8     0.0     1.8    0.00    3.47      0.3     1.2     1.5     0.3    3.82    2.39     0.0    1.6    0.1    0.00    0.11
 2015 161    14    13     2.0     0.0     2.0    0.00    3.50      0.3     1.5     1.7     0.3    3.84    2.40     0.0    1.6    0.0    0.00    0.12
 2015 162    15    14     2.4     0.0     2.4    0.00    3.51      0.4     1.8     2.0     0.4    3.85    2.41     0.0    1.6    0.0    0.00    0.13
 2015 163    16    15     2.8     0.0     2.8    0.00    3.52      0.4     2.3     2.4     0.4    3.85    2.41     0.0    1.6    0.0    0.00    0.15
 2015 164    17    16     3.0     0.0     3.0    0.00    3.53      0.4     2.7     2.6     0.5    3.85    2.41     0.0    1.6    0.0    0.02    0.16
 2015 165    18    17     3.2     0.0     3.2    0.00    3.50      0.4     2.9     2.7     0.5    3.82    2.39     0.0    1.6    0.1    0.03    0.17
 2015 166    19    18     3.7     0.0     3.7    0.00    3.53      0.4     3.5     3.1     0.6    3.84    2.41     0.0    1.6    0.0    0.03    0.19
 2015 167    20    19     4.3     0.0     4.3    0.00    3.53      0.4     4.2     3.7     0.6    3.85    2.41     0.0    1.6    0.0    0.03    0.21
 2015 168    21    20     5.0     0.0     5.0    0.00    3.54      0.5     4.9     4.2     0.7    3.85    2.41     0.0    1.6    0.0    0.09    0.22
 2015 169    22    21     5.6     0.0     5.6    0.00    3.54      0.5     5.8     4.7     0.8    3.85    2.42     0.0    1.6    0.0    0.29    0.24
 2015 170    23    22     6.1     0.0     6.1    0.00    3.54      0.5     6.8     5.2     0.9    3.86    2.42     0.0    1.6    0.0    0.29    0.26
 2015 171    24    23     6.4     0.0     6.4    0.00    3.55      0.5     7.4     5.4     0.9    3.86    2.42     0.0    1.6    0.0    0.29    0.28
 2015 172    25    24     6.5     0.0     6.5    0.00    3.55      0.5     7.9     5.6     1.0    3.86    2.42     0.0    1.6    0.0    0.29    0.30
 2015 173    26    25     6.9     0.0     6.9    0.00    3.53      0.5     8.7     5.9     1.0    3.84    2.41     0.0    1.6    0.0    0.30    0.32
 2015 174    27    26     8.0     0.0     8.0    0.00    3.54      0.5     9.9     6.8     1.1    3.84    2.41     0.0    1.6    0.0    0.33    0.35
 2015 175    28    27     8.6     0.0     8.6    0.00    3.53      0.5    11.0     7.3     1.3    3.84    2.41     0.0    1.6    0.0    0.77    0.37
 2015 176    29    28     9.2     0.0     9.2    0.00    3.51      0.5    12.2     7.8     1.5    3.84    2.41     0.0    1.6    0.0    1.36    0.39
 2015 177    30    29     9.6     0.0     9.6    0.00    3.28      0.7    12.8     8.0     1.6    3.62    2.23     0.0    1.6    0.2    1.62    0.41
 2015 178    31    30    11.0     0.0    11.0    0.00    3.36      0.7    14.3     9.1     1.9    3.71    2.32     0.0    1.6    0.0    1.62    0.44
 2015 179    32    31    12.6     0.0    12.6    0.00    3.44      0.7    16.1    10.3     2.3    3.80    2.41     0.0    1.6    0.0    1.62    0.46
 2015 180    33    32    14.3     0.0    14.3    0.00    3.45      0.7    17.9    11.6     2.7    3.83    2.43     0.0    1.6    0.0    1.62    0.49
 2015 181    34    33    14.9     0.0    14.9    0.00    3.25      1.0    18.5    12.0     2.9    3.62    2.28     0.0    1.5    0.3    1.65    0.51
 2015 182    35    34    16.7     0.0    16.7    0.00    3.25      1.0    20.4    13.3     3.4    3.64    2.29     0.0    1.5    0.0    1.67    0.54
 2015 183    36    35    19.2     0.0    19.2    0.00    3.40      1.0    23.6    15.1     4.1    3.80    2.44     0.0    1.6    0.0    1.72    0.58
 2015 184    37    36    20.5     0.0    20.5    0.00    3.33      1.4    24.9    16.0     4.5    3.77    2.35     0.0    1.5    0.3    1.99    0.61
 2015 185    38    37    22.9     0.0    22.9    0.00    3.42      1.5    28.0    17.7     5.2    3.89    2.44     0.0    1.6    0.0    2.13    0.65
 2015 186    39    38    24.9     0.0    24.9    0.00    3.49      1.5    30.4    19.1     5.9    4.00    2.48     0.0    1.6    0.0    2.37    0.68
 2015 187    40    39    26.9     0.0    26.9    0.00    3.55      1.5    32.8    20.4     6.6    4.09    2.51     0.0    1.6    0.0    2.60    0.72
 2015 188    41    40    28.3     0.0    28.3    0.00    3.61      1.5    34.5    21.2     7.1    4.19    2.54     0.0    1.6    0.0    2.85    0.76
 2015 189    42    41    28.9     0.0    28.9    0.00    3.65      1.5    35.3    21.6     7.3    4.25    2.56     0.0    1.6    0.0    2.98    0.81
 2015 190    43    42    31.3     0.0    31.3    0.00    3.63      1.5    37.9    23.2     8.2    4.25    2.56     0.0    1.6    0.0    3.04    0.84
 2015 191    44    43    31.9     0.0    31.9    0.00    3.56      1.9    39.0    23.4     8.5    4.22    2.50     0.0    1.5    0.3    3.24    0.89
 2015 192    45    44    34.9     0.0    34.9    0.00    3.55      2.0    42.6    25.3     9.6    4.21    2.50     0.0    1.5    0.0    3.25    0.95
 2015 193    46    45    37.8     0.0    37.8    0.00    3.56      2.0    46.0    27.0    10.8    4.26    2.52     0.0    1.5    0.0    3.42    1.00
 2015 194    47    46    39.2     0.0    39.2    0.00    3.40      2.7    47.3    27.8    11.5    4.14    2.38     0.0    1.5    0.6    3.68    1.06
 2015 195    48    47    42.0     0.0    42.0    0.00    3.40      2.7    51.0    29.3    12.7    4.16    2.40     0.0    1.5    0.0    4.29    1.14
 2015 196    49    48    45.4     0.0    45.4    0.00    3.39      2.7    54.8    31.3    14.1    4.16    2.40     0.0    1.5    0.0    4.35    1.23
 2015 197    50    49    48.7     0.0    48.3    0.00    3.40      2.7    58.7    33.0    15.3    4.21    2.41     3.5    1.5    0.0    4.55    1.31
 2015 198    51    50    50.3     0.0    49.3    0.00    3.31      3.3    60.3    33.4    15.9    4.14    2.33     3.5    1.5    0.6    4.83    1.37
 2015 199    52    51    53.9     0.0    51.8    0.00    3.31      3.3    64.1    34.8    17.0    4.15    2.34     3.5    1.5    0.0    4.88    1.46
 2015 200    53    52    57.7     0.0    54.1    0.00    3.35      3.3    68.7    36.1    18.0    4.21    2.37     3.5    1.5    0.0    5.02    1.56
 2015 201    54    53    61.6     0.0    56.3    0.00    3.37      3.3    73.4    37.3    19.0    4.25    2.39     3.5    1.5    0.0    5.18    1.65
 2015 202    55    54    65.4     0.0    57.8    0.00    3.39      3.3    77.7    38.1    19.7    4.29    2.40     3.5    1.5    0.0    5.34    1.75
 2015 203    56    55    68.2     0.0    58.1    0.00    3.41      3.3    81.2    38.3    19.8    4.33    2.41     3.5    1.6    0.0    5.70    1.86
 2015 204    57    56    68.9     0.4    56.4    3.69    3.34      3.3    82.5    37.1    19.3    4.28    2.35     3.5    1.5    0.0    6.37    1.97
 2015 205    58    57    72.0     1.6    55.3    3.64    3.29      3.9    85.3    36.3    19.0    4.24    2.31     3.5    1.5    0.5    6.65    2.04
 2015 206    59    58    75.0     3.3    53.9    3.65    3.26      3.9    88.9    35.4    18.5    4.20    2.28     3.4    1.5    0.0    6.93    2.14
 2015 207    60    59    76.5     5.3    51.0    3.66    3.20      4.1    92.3    33.1    17.9    4.16    2.24     3.4    1.5    0.1    8.60    2.21
 2015 208    61    60    77.4     7.8    47.8    3.65    3.13      4.6    94.8    30.6    17.2    4.11    2.20     3.4    1.5    0.5   10.67    2.29
 2015 209    62    61    78.3    10.6    46.4    3.65    3.01      5.3    95.4    29.6    16.7    4.02    2.08     3.3    1.4    0.6   11.14    2.36
 2015 210    63    62    79.9    13.7    44.8    3.64    2.90      6.1    97.0    28.6    16.2    3.93    1.99     3.2    1.4    0.7   11.70    2.42
 2015 211    64    63    82.2    17.3    43.1    3.64    2.85      6.9    99.2    27.4    15.6    3.87    1.95     3.2    1.4    0.8   12.30    2.49
 2015 212    65    64    84.3    21.0    41.3    3.64    2.79      7.8   101.2    26.2    15.1    3.82    1.90     3.1    1.4    0.9   12.91    2.55
 2015 213    66    65    85.5    24.6    39.7    3.63    2.64      8.7   101.9    25.1    14.6    3.69    1.78     3.1    1.4    0.8   13.19    2.62
 2015 214    67    66    87.3    28.3    38.1    3.62    2.56      9.8   103.0    24.0    14.1    3.61    1.71     3.0    1.3    1.0   13.60    2.67
 2015 215    68    67    89.5    32.3    36.4    3.63    2.50     10.8   104.6    22.9    13.5    3.54    1.67     2.9    1.3    1.1   13.94    2.73
 2015 216    69    68    90.6    36.0    34.7    3.61    2.37     12.0   104.9    21.7    13.0    3.42    1.57     2.9    1.3    1.1   14.36    2.78
 2015 217    70    69    92.5    40.2    33.0    3.62    2.27     13.4   105.7    20.6    12.4    3.31    1.49     2.8    1.3    1.2   14.51    2.84
 2015 218    71    70    94.6    44.3    31.3    3.62    2.20     14.8   106.9    19.4    11.9    3.23    1.44     2.7    1.3    1.3   14.93    2.89
 2015 219    72    71    97.1    48.6    29.7    3.63    2.14     16.3   108.0    18.4    11.4    3.15    1.40     2.6    1.2    1.4   15.07    2.94
 2015 220    73    72    98.2    52.0    28.3    3.60    2.06     17.4   108.4    17.4    10.9    3.06    1.36     2.6    1.2    1.0   15.47    3.01
 2015 221    74    73   100.3    56.0    27.0    3.60    1.99     19.0   109.1    16.5    10.5    2.98    1.31     2.5    1.2    1.5   15.58    3.05
 2015 222    75    74   102.7    60.0    25.7    3.61    1.92     20.7   110.0    15.6    10.1    2.89    1.27     2.4    1.2    1.6   15.70    3.09
 2015 223    76    75   104.5    63.6    24.4    3.60    1.86     22.4   110.2    14.8     9.7    2.81    1.23     2.4    1.2    1.7   15.86    3.14
 2015 224    77    76   106.2    67.5    23.0    3.60    1.79     24.3   110.7    13.7     9.3    2.72    1.19     2.3    1.2    1.8   16.42    3.18
 2015 225    78    77   108.6    71.5    21.9    3.60    1.74     26.1   111.4    13.0     8.9    2.64    1.16     2.3    1.1    1.8   16.53    3.22
 2015 226    79    78   111.1    75.3    20.9    3.60    1.69     27.8   112.3    12.3     8.6    2.58    1.13     2.2    1.1    1.7   16.61    3.26
 2015 227    80    79   112.3    78.2    19.8    3.59    1.63     28.9   112.5    11.5     8.2    2.48    1.10     2.1    1.1    1.1   16.72    3.32
 2015 228    81    80   114.4    81.6    18.9    3.59    1.57     30.7   113.0    10.9     8.0    2.41    1.07     2.1    1.1    1.8   16.89    3.36
 2015 229    82    81   116.7    84.6    18.3    3.59    1.54     32.6   113.6    10.5     7.8    2.35    1.05     2.0    1.1    1.8   16.97    3.40
 2015 230    83    82   118.6    86.5    18.4    3.59    1.53     34.0   114.3    10.4     8.1    2.33    1.07     2.0    1.1    1.4   17.03    3.43
 2015 231    84    83   117.9    87.1    17.5    3.59    1.47     34.0   114.9     9.6     7.9    2.24    1.04     2.0    1.2    0.0   17.52    3.55
 2015 232    85    84   117.4    87.3    17.1    3.59    1.42     34.0   115.3     9.3     7.9    2.18    1.01     1.9    1.2    0.0   17.62    3.63
 2015 233    86    85   115.2    87.4    15.0    3.59    1.33     34.0   116.0     7.1     7.9    2.11    1.00     1.9    1.2    0.0   20.25    3.69
 2015 234    87    86   113.9    87.5    13.8    3.59    1.28     34.0   116.8     5.6     8.1    2.11    1.01     1.8    1.2    0.0   22.27    3.74
 2015 235    88    87   112.7    87.6    12.7    3.59    1.24     34.0   117.7     4.5     8.2    2.12    1.01     1.8    1.2    0.0   23.89    3.87
 2015 236    89    88   111.8    87.8    11.8    3.59    1.21     34.0   118.5     3.6     8.3    2.15    1.02     1.8    1.2    0.0   25.17    3.99
 2015 237    90    89   111.0    87.9    11.1    3.60    1.18     34.0   118.9     2.8     8.2    2.17    1.02     1.8    1.2    0.0   26.18    4.11
 2015 238    91    90   110.4    87.9    10.5    3.60    1.16     34.0   119.5     2.3     8.3    2.22    1.03     1.8    1.2    0.0   26.99    4.23
 2015 239    92    91   110.1    88.0    10.2    3.60    1.15     34.0   120.1     1.8     8.3    2.29    1.04     1.7    1.2    0.0   27.64    4.34
 2015 240    93    92   109.6    88.1     9.7    3.60    1.13     34.0   120.1     1.4     8.3    2.31    1.04     1.7    1.2    0.0   28.16    4.45
 2015 241    94    93   109.2    88.1     9.4    3.60    1.13     34.0   120.4     1.1     8.2    2.37    1.05     1.7    1.2    0.0   28.56    4.56

*DSSAT Cropping System Model Ver. 4.7.5.007 -  MAR 01, 2026 21:19:28
@YEAR DOY   DAS   DAP    CNAD    GNAD    VNAD    GN%D    VN%D     NFXC    NUPC    LNAD    SNAD    LN%D    SN%D    SHND   RN%D   NFXD   SNN0C   SNN1C
 2015 161     1     0     0.0     0.0     0.0    0.00    0.00      0.0     0.0     0.0     0.0    0.00    0.00     0.0    0.0    0.0    0.00    0.00
 2015 162     2     1     0.0     0.0     0.0    0.00    0.00      0.0     0.0     0.0     0.0    0.00    0.00     0.0    0.0    0.0    0.00    0.00
 2015 163     3     2     0.0     0.0     0.0    0.00    0.00      0.0     0.0     0.0     0.0    0.00    0.00     0.0    0.0    0.0    0.00    0.00
 2015 164     4     3     0.0     0.0     0.0    0.00    0.00      0.0     0.0     0.0     0.0    0.00    0.00     0.0    0.0    0.0    0.00    0.00
 2015 165     5     4     0.6     0.0     0.6    0.00    3.41      0.2     0.0     0.5     0.1    3.84    2.40     0.0    1.6    0.0    0.00    0.01
 2015 166     6     5     0.7     0.0     0.7    0.00    3.44      0.2     0.1     0.6     0.1    3.85    2.41     0.0    1.6    0.0    0.00    0.03
 2015 167     7     6     0.8     0.0     0.8    0.00    3.47      0.2     0.2     0.7     0.1    3.85    2.41     0.0    1.6    0.0    0.00    0.04
 2015 168     8     7     0.9     0.0     0.9    0.00    3.50      0.2     0.3     0.8     0.2    3.85    2.41     0.0    1.6    0.0    0.00    0.05
 2015 169     9     8     1.1     0.0     1.1    0.00    3.51      0.2     0.5     0.9     0.2    3.85    2.42     0.0    1.6    0.0    0.00    0.06
 2015 170    10     9     1.2     0.0     1.2    0.00    3.47      0.3     0.6     1.0     0.2    3.82    2.39     0.0    1.6    0.0    0.00    0.07
 2015 171    11    10     1.3     0.0     1.3    0.00    3.47      0.3     0.7     1.1     0.2    3.84    2.41     0.0    1.6    0.0    0.00    0.08
 2015 172    12    11     1.5     0.0     1.5    0.00    3.48      0.3     0.9     1.3     0.3    3.84    2.41     0.0    1.6    0.0    0.00    0.09
 2015 173    13    12     1.8     0.0     1.8    0.00    3.49      0.3     1.2     1.5     0.3    3.85    2.42     0.0    1.6    0.0    0.00    0.10
 2015 174    14    13     2.0     0.0     2.0    0.00    3.50      0.3     1.5     1.7     0.3    3.85    2.42     0.0    1.6    0.0    0.00    0.12
 2015 175    15    14     2.3     0.0     2.3    0.00    3.48      0.4     1.6     1.9     0.4    3.82    2.40     0.0    1.6    0.2    0.01    0.12
 2015 176    16    15     2.6     0.0     2.6    0.00    3.44      0.4     1.9     2.2     0.4    3.77    2.37     0.0    1.6    0.0    0.01    0.13
 2015 177    17    16     2.9     0.0     2.9    0.00    3.43      0.6     2.0     2.5     0.5    3.76    2.35     0.0    1.6    0.2    0.02    0.14
 2015 178    18    17     3.3     0.0     3.3    0.00    3.42      0.7     2.4     2.8     0.5    3.74    2.34     0.0    1.5    0.0    0.02    0.15
 2015 179    19    18     3.8     0.0     3.8    0.00    3.50      0.7     3.0     3.2     0.6    3.83    2.40     0.0    1.6    0.0    0.02    0.16
 2015 180    20    19     4.2     0.0     4.2    0.00    3.51      0.7     3.7     3.5     0.7    3.84    2.41     0.0    1.6    0.0    0.02    0.17
 2015 181    21    20     4.5     0.0     4.5    0.00    3.48      0.8     3.9     3.8     0.7    3.80    2.38     0.0    1.6    0.1    0.03    0.18
 2015 182    22    21     5.1     0.0     5.1    0.00    3.46      0.8     4.6     4.3     0.8    3.78    2.37     0.0    1.6    0.0    0.04    0.20
 2015 183    23    22     5.5     0.0     5.5    0.00    3.26      1.1     4.8     4.7     0.9    3.57    2.23     0.0    1.5    0.2    0.06    0.21
 2015 184    24    23     6.3     0.0     6.3    0.00    3.27      1.2     5.6     5.4     1.0    3.57    2.23     0.0    1.5    0.1    0.08    0.22
 2015 185    25    24     7.6     0.0     7.6    0.00    3.47      1.2     7.0     6.4     1.2    3.79    2.39     0.0    1.5    0.0    0.16    0.24
 2015 186    26    25     8.7     0.0     8.7    0.00    3.51      1.2     8.2     7.4     1.4    3.83    2.42     0.0    1.6    0.0    0.16    0.26
 2015 187    27    26     9.2     0.0     9.2    0.00    3.34      1.5     8.6     7.7     1.5    3.68    2.27     0.0    1.5    0.2    0.18    0.27
 2015 188    28    27    10.1     0.0    10.1    0.00    3.36      1.5     9.5     8.3     1.7    3.71    2.30     0.0    1.5    0.0    0.18    0.29
 2015 189    29    28    10.7     0.0    10.7    0.00    3.46      1.5    10.3     8.8     1.9    3.81    2.42     0.0    1.5    0.0    0.18    0.31
 2015 190    30    29    12.1     0.0    12.1    0.00    3.47      1.5    11.8     9.8     2.2    3.84    2.44     0.0    1.6    0.0    0.18    0.33
 2015 191    31    30    12.6     0.0    12.6    0.00    3.23      1.8    12.2    10.2     2.4    3.59    2.26     0.0    1.5    0.3    0.23    0.35
 2015 192    32    31    14.2     0.0    14.2    0.00    3.23      2.0    13.7    11.3     2.8    3.62    2.27     0.0    1.5    0.2    0.30    0.37
 2015 193    33    32    16.5     0.0    16.5    0.00    3.41      2.1    16.4    13.0     3.5    3.81    2.44     0.0    1.5    0.0    0.37    0.39
 2015 194    34    33    17.4     0.0    17.4    0.00    3.39      2.4    17.5    13.6     3.8    3.81    2.40     0.0    1.5    0.3    0.55    0.42
 2015 195    35    34    19.5     0.0    19.5    0.00    3.44      2.5    20.1    15.2     4.4    3.89    2.45     0.0    1.5    0.0    0.64    0.45
 2015 196    36    35    21.7     0.0    21.7    0.00    3.50      2.5    22.6    16.7     5.0    3.99    2.49     0.0    1.5    0.0    0.82    0.48
 2015 197    37    36    23.0     0.0    23.0    0.00    3.52      2.8    24.5    17.5     5.5    4.04    2.49     0.0    1.5    0.3    1.04    0.52
 2015 198    38    37    25.3     0.0    25.3    0.00    3.55      2.8    27.3    19.1     6.2    4.09    2.51     0.0    1.5    0.0    1.16    0.56
 2015 199    39    38    27.5     0.0    27.5    0.00    3.60      2.8    29.9    20.6     7.0    4.19    2.54     0.0    1.5    0.0    1.38    0.60
 2015 200    40    39    29.5     0.0    29.5    0.00    3.65      2.8    32.8    21.9     7.7    4.27    2.57     0.0    1.6    0.0    1.62    0.64
 2015 201    41    40    30.5     0.0    30.5    0.00    3.69      2.8    35.3    22.5     8.0    4.35    2.59     0.0    1.6    0.0    1.81    0.70
 2015 202    42    41    33.2     0.0    33.2    0.00    3.69      2.9    38.3    24.2     9.0    4.37    2.59     0.0    1.6    0.0    1.94    0.76
 2015 203    43    42    36.3     0.0    36.3    0.00    3.68      2.9    41.7    26.1    10.1    4.40    2.59     0.0    1.6    0.0    2.11    0.82
 2015 204    44    43    37.9     0.0    37.9    0.00    3.64      3.6    43.5    27.0    10.9    4.39    2.55     0.0    1.6    0.6    2.38    0.90
 2015 205    45    44    40.2     0.0    40.2    0.00    3.59      3.6    47.4    28.1    12.0    4.36    2.54     0.0    1.6    0.0    3.42    0.97
 2015 206    46    45    43.6     0.0    43.6    0.00    3.55      3.6    51.1    30.2    13.4    4.33    2.53     0.0    1.6    0.0    3.42    1.06
 2015 207    47    46    47.1     0.0    47.1    0.00    3.54      3.7    55.1    32.2    14.8    4.34    2.52     0.0    1.6    0.0    3.56    1.14
 2015 208    48    47    48.9     0.0    48.9    0.00    3.50      3.7    58.1    33.1    15.7    4.34    2.48     0.0    1.6    0.0    3.86    1.26
 2015 209    49    48    51.7     0.0    51.6    0.00    3.48      3.7    61.6    34.8    16.9    4.32    2.48     3.5    1.6    0.0    3.89    1.37
 2015 210    50    49    55.4     0.0    54.9    0.00    3.47      3.7    65.9    36.6    18.3    4.34    2.47     3.5    1.6    0.0    4.06    1.50
 2015 211    51    50    59.2     0.0    57.9    0.00    3.46      3.7    70.4    38.3    19.6    4.37    2.47     3.5    1.6    0.0    4.28    1.62
 2015 212    52    51    60.8     0.0    58.2    0.00    3.40      4.3    72.3    38.3    19.9    4.33    2.40     3.5    1.5    0.5    4.58    1.72
 2015 213    53    52    64.7     0.0    60.4    0.00    3.38      4.3    76.9    39.5    20.9    4.32    2.40     3.5    1.5    0.0    4.60    1.85
 2015 214    54    53    68.8     0.0    62.3    0.00    3.38      4.3    81.6    40.5    21.7    4.33    2.40     3.5    1.5    0.0    4.75    1.98
 2015 215    55    54    72.9     0.1    63.7    3.64    3.39      4.3    86.3    41.3    22.4    4.37    2.41     3.5    1.5    0.0    5.07    2.12
 2015 216    56    55    74.5     0.5    62.2    3.65    3.25      5.1    87.7    40.2    21.9    4.28    2.25     3.5    1.5    0.7    5.54    2.23
 2015 217    57    56    77.1     1.4    60.6    3.66    3.17      5.2    90.5    39.2    21.4    4.22    2.18     3.5    1.5    0.1    5.91    2.33
 2015 218    58    57    80.3     2.9    59.0    3.67    3.14      5.5    94.1    38.1    20.9    4.19    2.16     3.4    1.5    0.4    6.31    2.44
 2015 219    59    58    83.4     4.9    57.4    3.68    3.09      6.4    96.8    37.0    20.4    4.14    2.12     3.4    1.5    0.8    6.66    2.54
 2015 220    60    59    84.9     7.3    55.8    3.66    2.94      7.3    97.7    35.9    19.9    4.03    1.97     3.3    1.5    0.8    6.96    2.64
 2015 221    61    60    87.5    10.0    54.2    3.65    2.88      8.5    99.6    34.8    19.4    3.97    1.93     3.3    1.5    1.0    7.32    2.73
 2015 222    62    61    90.4    13.5    52.3    3.66    2.82      9.8   101.7    33.5    18.8    3.92    1.88     3.3    1.4    1.1    7.75    2.82
 2015 223    63    62    91.6    17.6    50.5    3.66    2.71     11.2   102.2    32.3    18.2    3.82    1.79     3.2    1.4    1.3    8.43    2.90
 2015 224    64    63    94.1    21.9    48.5    3.65    2.63     12.9   103.3    30.9    17.5    3.74    1.72     3.1    1.4    1.5    8.61    2.99
 2015 225    65    64    96.6    26.3    46.5    3.65    2.57     14.7   104.8    29.6    16.9    3.68    1.69     3.1    1.4    1.7    9.17    3.07
 2015 226    66    65    98.9    30.7    44.5    3.65    2.52     16.5   105.9    28.2    16.3    3.62    1.65     3.0    1.3    1.8    9.77    3.14
 2015 227    67    66   100.7    35.4    42.4    3.65    2.41     18.4   106.4    26.8    15.6    3.51    1.57     2.9    1.3    1.7   10.21    3.23
 2015 228    68    67   103.0    39.9    40.5    3.65    2.35     20.5   107.1    25.5    15.0    3.45    1.53     2.9    1.3    2.1   10.73    3.30
 2015 229    69    68   105.6    44.7    38.6    3.65    2.29     22.7   108.0    24.2    14.4    3.38    1.49     2.8    1.3    2.2   10.98    3.37
 2015 230    70    69   107.7    49.5    36.7    3.65    2.21     25.1   108.2    22.9    13.8    3.28    1.43     2.7    1.3    2.2   11.35    3.44
 2015 231    71    70   110.2    54.5    34.7    3.67    2.14     27.4   108.7    21.5    13.2    3.20    1.39     2.7    1.2    2.4   11.79    3.52
 2015 232    72    71   112.9    59.4    33.1    3.67    2.09     29.8   109.4    20.4    12.7    3.13    1.36     2.6    1.2    2.3   12.05    3.58
 2015 233    73    72   115.6    64.4    31.4    3.67    2.03     32.0   110.1    19.3    12.2    3.04    1.33     2.5    1.2    2.2   12.31    3.65
 2015 234    74    73   117.7    68.8    29.8    3.66    1.94     33.8   110.4    18.1    11.6    2.94    1.27     2.4    1.2    1.8   12.45    3.73
 2015 235    75    74   120.2    73.5    28.3    3.67    1.87     36.0   110.9    17.1    11.2    2.85    1.23     2.4    1.2    2.2   12.68    3.79
 2015 236    76    75   122.8    78.2    26.8    3.67    1.81     38.2   111.4    16.1    10.7    2.76    1.19     2.3    1.2    2.2   12.81    3.85
 2015 237    77    76   125.2    82.6    25.5    3.68    1.74     40.6   111.6    15.2    10.3    2.67    1.15     2.2    1.1    2.4   12.93    3.91
 2015 238    78    77   127.5    86.8    24.1    3.68    1.68     42.7   111.9    14.2     9.9    2.59    1.12     2.2    1.1    2.1   13.13    3.96
 2015 239    79    78   130.2    91.2    22.9    3.68    1.63     45.1   112.3    13.4     9.5    2.51    1.09     2.1    1.1    2.4   13.23    4.01
 2015 240    80    79   131.6    94.1    22.0    3.67    1.59     46.5   112.3    12.8     9.2    2.45    1.07     2.1    1.1    1.5   13.32    4.06
 2015 241    81    80   134.0    97.4    21.4    3.67    1.56     48.9   112.5    12.3     9.1    2.39    1.06     2.0    1.1    2.4   13.50    4.11
 2015 242    82    81   136.0    98.9    22.4    3.67    1.58     51.0   112.8    12.5     9.9    2.40    1.10     2.0    1.1    2.1   13.61    4.16
 2015 243    83    82   137.0    99.7    23.0    3.67    1.56     52.9   112.9    12.5    10.5    2.36    1.11     1.9    1.1    1.9   13.71    4.22
 2015 244    84    83   136.7    99.9    23.0    3.67    1.48     52.9   113.1    12.3    10.7    2.27    1.06     1.9    1.1    0.0   13.80    4.27
 2015 245    85    84   133.4    99.9    20.0    3.67    1.38     52.9   113.6     9.3    10.7    2.18    1.04     1.8    1.1    0.0   17.32    4.34
 2015 246    86    85   131.3    99.9    18.3    3.67    1.32     52.9   114.4     7.3    11.0    2.16    1.05     1.8    1.1    0.0   19.98    4.40
 2015 247    87    86   129.3   100.0    16.6    3.67    1.25     52.9   114.7     5.7    10.9    2.11    1.03     1.7    1.1    0.0   22.09    4.47
 2015 248    88    87   127.9   100.0    15.5    3.67    1.21     52.9   115.2     4.5    10.9    2.12    1.02     1.7    1.1    0.0   23.72    4.54
 2015 249    89    88   126.9   100.1    14.6    3.67    1.18     52.9   116.0     3.6    11.0    2.15    1.03     1.7    1.1    0.0   25.01    4.71
 2015 250    90    89   125.8   100.1    13.7    3.67    1.15     52.9   116.1     2.9    10.8    2.16    1.02     1.7    1.1    0.0   26.04    4.82
 2015 251    91    90   124.9   100.1    13.0    3.67    1.11     52.9   116.3     2.3    10.7    2.17    1.01     1.6    1.1    0.0   26.86    4.97
 2015 252    92    91   124.2   100.1    12.3    3.67    1.10     52.9   116.3     1.8    10.6    2.19    1.01     1.6    1.1    0.0   27.51    5.13
 2015 253    93    92   123.7   100.1    11.9    3.67    1.08     52.9   116.5     1.4    10.5    2.23    1.02     1.6    1.1    0.0   28.01    5.28

*DSSAT Cropping System Model Ver. 4.7.5.007 -  MAR 01, 2026 21:19:28
@YEAR DOY   DAS   DAP    CNAD    GNAD    VNAD    GN%D    VN%D     NFXC    NUPC    LNAD    SNAD    LN%D    SN%D    SHND   RN%D   NFXD   SNN0C   SNN1C
 2016 132     1     0     0.0     0.0     0.0    0.00    0.00      0.0     0.0     0.0     0.0    0.00    0.00     0.0    0.0    0.0    0.00    0.00
 2016 133     2     1     0.0     0.0     0.0    0.00    0.00      0.0     0.0     0.0     0.0    0.00    0.00     0.0    0.0    0.0    0.00    0.00
 2016 134     3     2     0.0     0.0     0.0    0.00    0.00      0.0     0.0     0.0     0.0    0.00    0.00     0.0    0.0    0.0    0.00    0.00
 2016 135     4     3     0.0     0.0     0.0    0.00    0.00      0.0     0.0     0.0     0.0    0.00    0.00     0.0    0.0    0.0    0.00    0.00
 2016 136     5     4     0.6     0.0     0.6    0.00    3.41      0.2     0.0     0.5     0.1    3.84    2.41     0.0    1.6    0.0    0.00    0.02
 2016 137     6     5     0.7     0.0     0.7    0.00    3.40      0.2     0.1     0.6     0.1    3.80    2.38     0.0    1.6    0.0    0.00    0.03
 2016 138     7     6     0.8     0.0     0.8    0.00    3.46      0.2     0.2     0.7     0.1    3.84    2.39     0.0    1.6    0.0    0.00    0.04
 2016 139     8     7     0.9     0.0     0.9    0.00    3.49      0.2     0.3     0.8     0.2    3.85    2.40     0.0    1.6    0.0    0.00    0.05
 2016 140     9     8     1.1     0.0     1.1    0.00    3.50      0.2     0.5     0.9     0.2    3.85    2.40     0.0    1.6    0.0    0.00    0.07
 2016 141    10     9     1.2     0.0     1.2    0.00    3.44      0.3     0.6     1.0     0.2    3.82    2.38     0.0    1.6    0.0    0.00    0.07
 2016 142    11    10     1.4     0.0     1.4    0.00    3.48      0.3     0.8     1.2     0.3    3.85    2.40     0.0    1.6    0.0    0.00    0.09
 2016 143    12    11     1.7     0.0     1.7    0.00    3.50      0.3     1.1     1.4     0.3    3.85    2.40     0.0    1.6    0.0    0.00    0.10
 2016 144    13    12     2.0     0.0     2.0    0.00    3.51      0.3     1.4     1.6     0.3    3.86    2.41     0.0    1.6    0.0    0.00    0.11
 2016 145    14    13     2.3     0.0     2.3    0.00    3.49      0.4     1.6     1.9     0.4    3.83    2.39     0.0    1.6    0.1    0.01    0.12
 2016 146    15    14     2.7     0.0     2.7    0.00    3.49      0.4     2.1     2.3     0.4    3.82    2.38     0.0    1.6    0.0    0.01    0.13
 2016 147    16    15     3.2     0.0     3.2    0.00    3.51      0.4     2.6     2.7     0.5    3.84    2.40     0.0    1.6    0.0    0.01    0.14
 2016 148    17    16     3.7     0.0     3.7    0.00    3.44      0.6     2.9     3.1     0.6    3.77    2.36     0.0    1.6    0.2    0.02    0.15
 2016 149    18    17     4.3     0.0     4.3    0.00    3.44      0.7     3.4     3.6     0.7    3.77    2.36     0.0    1.5    0.1    0.03    0.16
 2016 150    19    18     5.0     0.0     5.0    0.00    3.45      0.7     4.2     4.2     0.8    3.78    2.36     0.0    1.5    0.0    0.04    0.17
 2016 151    20    19     5.6     0.0     5.6    0.00    3.25      1.0     4.6     4.7     0.9    3.57    2.23     0.0    1.5    0.2    0.05    0.18
 2016 152    21    20     6.5     0.0     6.5    0.00    3.20      1.3     5.3     5.5     1.1    3.52    2.19     0.0    1.5    0.3    0.07    0.19
 2016 153    22    21     7.2     0.0     7.2    0.00    3.01      1.7     5.7     6.0     1.2    3.31    2.06     0.0    1.4    0.3    0.08    0.21
 2016 154    23    22     8.3     0.0     8.3    0.00    3.03      2.0     6.6     6.8     1.5    3.34    2.11     0.0    1.4    0.2    0.10    0.22
 2016 155    24    23     9.3     0.0     9.3    0.00    2.91      2.4     7.3     7.5     1.7    3.24    2.02     0.0    1.4    0.4    0.12    0.23
 2016 156    25    24    10.8     0.0    10.8    0.00    2.94      2.8     8.5     8.6     2.2    3.28    2.07     0.0    1.4    0.3    0.15    0.24
 2016 157    26    25    12.6     0.0    12.6    0.00    3.01      2.8    10.6     9.9     2.7    3.37    2.15     0.0    1.5    0.0    0.15    0.27
 2016 158    27    26    15.3     0.0    15.3    0.00    3.24      2.8    13.5    11.9     3.4    3.62    2.36     0.0    1.6    0.0    0.19    0.29
 2016 159    28    27    16.8     0.0    16.8    0.00    3.24      3.4    14.9    12.9     3.9    3.66    2.34     0.0    1.6    0.5    0.44    0.32
 2016 160    29    28    18.8     0.0    18.8    0.00    3.27      3.4    17.2    14.3     4.5    3.72    2.36     0.0    1.6    0.0    0.57    0.35
 2016 161    30    29    20.4     0.0    20.4    0.00    3.21      4.1    18.4    15.4     5.0    3.69    2.29     0.0    1.5    0.6    0.76    0.37
 2016 162    31    30    22.5     0.0    22.5    0.00    3.23      4.1    20.9    16.7     5.8    3.74    2.30     0.0    1.5    0.0    0.99    0.41
 2016 163    32    31    25.3     0.0    25.3    0.00    3.34      4.1    24.6    18.5     6.7    3.89    2.41     0.0    1.6    0.0    1.16    0.45
 2016 164    33    32    27.5     0.0    27.5    0.00    3.41      4.1    27.3    20.0     7.6    4.01    2.44     0.0    1.6    0.0    1.42    0.49
 2016 165    34    33    29.9     0.0    29.9    0.00    3.46      4.2    30.0    21.4     8.4    4.11    2.47     0.0    1.6    0.0    1.68    0.52
 2016 166    35    34    32.6     0.0    32.6    0.00    3.48      4.2    33.1    23.1     9.5    4.15    2.49     0.0    1.6    0.0    1.84    0.57
 2016 167    36    35    35.1     0.0    35.1    0.00    3.44      4.2    36.0    24.6    10.5    4.15    2.46     0.0    1.6    0.0    2.05    0.61
 2016 168    37    36    37.6     0.0    37.6    0.00    3.40      4.9    38.2    26.0    11.6    4.14    2.44     0.0    1.5    0.7    2.24    0.65
 2016 169    38    37    40.9     0.0    40.9    0.00    3.40      5.0    42.0    27.9    13.0    4.15    2.44     0.0    1.6    0.0    2.31    0.70
 2016 170    39    38    43.4     0.0    43.4    0.00    3.37      5.8    44.2    29.2    14.2    4.15    2.42     0.0    1.5    0.8    2.58    0.74
 2016 171    40    39    46.9     0.0    46.9    0.00    3.36      5.8    48.3    31.1    15.8    4.16    2.43     0.0    1.6    0.0    2.65    0.80
 2016 172    41    40    50.3     0.0    50.3    0.00    3.37      5.9    52.2    33.0    17.3    4.20    2.44     0.0    1.6    0.0    2.85    0.86
 2016 173    42    41    53.7     0.0    53.7    0.00    3.37      5.9    56.2    34.8    18.9    4.24    2.45     0.0    1.6    0.0    3.06    0.93
 2016 174    43    42    57.0     0.0    57.0    0.00    3.37      5.9    60.1    36.6    20.4    4.27    2.45     0.0    1.6    0.0    3.27    1.03
 2016 175    44    43    59.3     0.0    59.2    0.00    3.32      5.9    62.9    37.5    21.6    4.25    2.40     3.5    1.6    0.0    3.58    1.12
 2016 176    45    44    62.9     0.0    62.2    0.00    3.30      5.9    67.3    39.1    23.1    4.24    2.40     3.5    1.6    0.0    3.66    1.22
 2016 177    46    45    65.5     0.0    63.7    0.00    3.24      6.5    69.8    39.7    24.0    4.21    2.35     3.5    1.5    0.6    3.96    1.29
 2016 178    47    46    69.5     0.0    66.1    0.00    3.23      6.5    74.0    40.9    25.2    4.20    2.35     3.5    1.5    0.0    4.01    1.39
 2016 179    48    47    73.7     0.0    68.3    0.00    3.25      6.5    79.2    42.0    26.3    4.24    2.37     3.5    1.6    0.0    4.12    1.48
 2016 180    49    48    77.8     0.0    70.0    0.00    3.27      6.5    83.9    42.8    27.1    4.28    2.38     3.5    1.6    0.0    4.32    1.57
 2016 181    50    49    79.7     0.1    69.2    3.59    3.19      7.0    85.7    42.2    27.0    4.23    2.30     3.5    1.6    0.5    4.80    1.64
 2016 182    51    50    82.4     0.8    68.1    3.59    3.16      7.0    88.6    41.5    26.6    4.20    2.28     3.5    1.5    0.0    4.92    1.73
 2016 183    52    51    85.7     1.4    67.3    3.61    3.14      7.0    92.3    40.9    26.4    4.18    2.26     3.4    1.5    0.0    5.30    1.83
 2016 184    53    52    86.8     2.6    65.8    3.60    3.00      7.8    93.1    39.9    25.9    4.08    2.13     3.4    1.5    0.7    5.74    1.89
 2016 185    54    53    89.0     4.4    64.0    3.62    2.94      8.7    94.8    38.7    25.3    4.02    2.07     3.4    1.5    0.8    6.15    1.95
 2016 186    55    54    91.5     6.7    62.2    3.62    2.90      9.8    97.2    37.6    24.6    3.99    2.04     3.3    1.5    0.9    6.64    2.02
 2016 187    56    55    93.7    10.0    60.3    3.63    2.85     10.6    99.7    36.4    24.0    3.94    2.01     3.3    1.5    0.8    7.44    2.08
 2016 188    57    56    94.8    13.7    58.3    3.64    2.73     11.8   100.2    35.1    23.2    3.84    1.90     3.2    1.4    1.1    7.92    2.14
 2016 189    58    57    96.9    17.4    56.3    3.63    2.65     13.2   101.2    33.8    22.5    3.77    1.83     3.2    1.4    1.2    8.09    2.19
 2016 190    59    58    99.1    21.2    54.1    3.64    2.59     14.7   102.6    32.3    21.7    3.71    1.79     3.1    1.4    1.4    8.67    2.25
 2016 191    60    59   100.2    25.0    51.9    3.64    2.50     16.5   102.9    30.9    21.0    3.61    1.71     3.1    1.4    1.6    9.45    2.31
 2016 192    61    60   102.0    29.2    49.5    3.65    2.42     18.4   103.5    29.4    20.1    3.53    1.66     3.0    1.4    1.7   10.15    2.36
 2016 193    62    61   104.1    33.5    47.6    3.66    2.37     20.3   104.4    28.1    19.5    3.47    1.63     2.9    1.3    1.9   10.85    2.42
 2016 194    63    62   106.4    38.1    45.5    3.67    2.31     22.3   105.4    26.7    18.8    3.40    1.59     2.9    1.3    1.9   11.34    2.47
 2016 195    64    63   108.4    42.7    43.4    3.67    2.24     24.5   105.7    25.4    18.0    3.32    1.53     2.8    1.3    2.0   11.58    2.51
 2016 196    65    64   110.7    47.2    41.4    3.67    2.17     26.8   106.1    24.1    17.3    3.24    1.49     2.7    1.3    2.2   12.00    2.56
 2016 197    66    65   113.1    52.0    39.6    3.67    2.12     29.2   106.7    22.9    16.7    3.17    1.45     2.7    1.3    2.4   12.46    2.60
 2016 198    67    66   115.7    56.7    38.0    3.67    2.07     31.3   107.4    21.8    16.2    3.10    1.42     2.6    1.3    2.2   12.87    2.65
 2016 199    68    67   118.2    61.5    36.3    3.67    2.01     33.6   108.0    20.7    15.6    3.03    1.39     2.6    1.2    2.2   13.01    2.69
 2016 200    69    68   120.7    65.9    34.9    3.66    1.97     35.9   108.3    19.8    15.1    2.97    1.36     2.5    1.2    2.4   13.13    2.72
 2016 201    70    69   123.3    70.5    33.4    3.66    1.91     38.4   108.7    18.8    14.5    2.90    1.33     2.4    1.2    2.4   13.34    2.76
 2016 202    71    70   125.9    75.2    31.9    3.66    1.86     40.8   109.2    17.9    14.0    2.83    1.30     2.4    1.2    2.4   13.49    2.79
 2016 203    72    71   128.2    79.4    30.5    3.66    1.80     43.3   109.3    17.0    13.5    2.75    1.26     2.3    1.2    2.4   13.76    2.82
 2016 204    73    72   130.8    83.7    29.2    3.65    1.76     45.9   109.5    16.2    13.1    2.68    1.23     2.3    1.2    2.5   13.99    2.86
 2016 205    74    73   133.3    88.0    28.0    3.66    1.71     48.2   109.8    15.3    12.7    2.61    1.21     2.2    1.1    2.4   14.10    2.89
 2016 206    75    74   136.0    92.0    26.7    3.66    1.66     50.8   110.2    14.5    12.2    2.53    1.18     2.2    1.1    2.6   14.26    2.93
 2016 207    76    75   138.2    95.2    25.8    3.66    1.62     53.4   110.3    13.9    11.9    2.46    1.16     2.2    1.1    2.6   14.51    2.96
 2016 208    77    76   140.4    98.1    25.1    3.66    1.58     55.9   110.5    13.3    11.8    2.40    1.14     2.1    1.1    2.6   14.65    2.99
 2016 209    78    77   142.3   100.1    25.1    3.66    1.56     58.1   110.8    13.1    12.0    2.37    1.13     2.1    1.1    2.2   14.82    3.02
 2016 210    79    78   143.9   101.9    25.0    3.66    1.53     60.4   110.9    12.9    12.1    2.32    1.12     2.1    1.1    2.3   14.98    3.06
 2016 211    80    79   143.9   103.2    23.9    3.66    1.40     60.4   111.0    12.2    11.7    2.19    1.02     2.0    1.1    0.0   15.07    3.09
 2016 212    81    80   140.4   103.7    20.1    3.66    1.27     60.4   111.2     8.8    11.2    2.06    0.97     2.0    1.1    0.0   18.57    3.12
 2016 213    82    81   138.0   104.2    17.5    3.66    1.17     60.4   111.5     6.5    10.9    1.97    0.95     2.0    1.1    0.0   21.10    3.15
 2016 214    83    82   136.1   104.7    15.4    3.66    1.09     60.4   111.7     4.8    10.6    1.89    0.92     1.9    1.1    0.0   22.98    3.19
 2016 215    84    83   134.9   105.3    14.0    3.66    1.04     60.4   111.9     3.6    10.4    1.84    0.90     1.9    1.1    0.0   24.36    3.22
 2016 216    85    84   134.1   105.8    13.0    3.66    1.01     60.4   112.1     2.8    10.2    1.82    0.90     1.8    1.1    0.0   25.39    3.26
 2016 217    86    85   133.3   106.3    12.1    3.66    0.97     60.4   112.2     2.1    10.0    1.78    0.89     1.8    1.1    0.0   26.18    3.30
 2016 218    87    86   132.8   106.8    11.3    3.66    0.95     60.4   112.3     1.6     9.8    1.76    0.88     1.8    1.1    0.0   26.78    3.44
 2016 219    88    87   132.4   107.3    10.8    3.66    0.93     60.4   112.4     1.2     9.6    1.74    0.88     1.7    1.1    0.0   27.23    3.58
 2016 220    89    88   132.1   107.7    10.2    3.66    0.91     60.4   112.5     0.9     9.4    1.70    0.87     1.7    1.1    0.0   27.57    3.71

*DSSAT Cropping System Model Ver. 4.7.5.007 -  MAR 01, 2026 21:19:28
@YEAR DOY   DAS   DAP    CNAD    GNAD    VNAD    GN%D    VN%D     NFXC    NUPC    LNAD    SNAD    LN%D    SN%D    SHND   RN%D   NFXD   SNN0C   SNN1C
 2016 154     1     0     0.0     0.0     0.0    0.00    0.00      0.0     0.0     0.0     0.0    0.00    0.00     0.0    0.0    0.0    0.00    0.00
 2016 155     2     1     0.0     0.0     0.0    0.00    0.00      0.0     0.0     0.0     0.0    0.00    0.00     0.0    0.0    0.0    0.00    0.00
 2016 156     3     2     0.0     0.0     0.0    0.00    0.00      0.0     0.0     0.0     0.0    0.00    0.00     0.0    0.0    0.0    0.00    0.00
 2016 157     4     3     0.0     0.0     0.0    0.00    0.00      0.0     0.0     0.0     0.0    0.00    0.00     0.0    0.0    0.0    0.00    0.00
 2016 158     5     4     0.6     0.0     0.6    0.00    3.41      0.2     0.0     0.5     0.1    3.84    2.40     0.0    1.6    0.0    0.00    0.01
 2016 159     6     5     0.7     0.0     0.7    0.00    3.44      0.2     0.1     0.6     0.1    3.85    2.41     0.0    1.6    0.0    0.00    0.03
 2016 160     7     6     0.8     0.0     0.8    0.00    3.47      0.2     0.2     0.7     0.1    3.85    2.41     0.0    1.6    0.0    0.00    0.04
 2016 161     8     7     0.9     0.0     0.9    0.00    3.49      0.2     0.3     0.8     0.2    3.85    2.42     0.0    1.6    0.0    0.00    0.05
 2016 162     9     8     1.1     0.0     1.1    0.00    3.50      0.2     0.5     0.9     0.2    3.85    2.42     0.0    1.6    0.0    0.00    0.07
 2016 163    10     9     1.2     0.0     1.2    0.00    3.49      0.2     0.6     1.0     0.2    3.85    2.42     0.0    1.6    0.0    0.00    0.08
 2016 164    11    10     1.3     0.0     1.3    0.00    3.48      0.2     0.8     1.1     0.2    3.85    2.42     0.0    1.6    0.0    0.00    0.09
 2016 165    12    11     1.5     0.0     1.5    0.00    3.49      0.2     1.0     1.3     0.3    3.85    2.42     0.0    1.6    0.0    0.00    0.10
 2016 166    13    12     1.8     0.0     1.8    0.00    3.50      0.2     1.3     1.5     0.3    3.86    2.42     0.0    1.6    0.0    0.00    0.11
 2016 167    14    13     2.1     0.0     2.1    0.00    3.51      0.2     1.6     1.7     0.3    3.86    2.42     0.0    1.6    0.0    0.00    0.12
 2016 168    15    14     2.4     0.0     2.4    0.00    3.52      0.2     2.0     2.0     0.4    3.86    2.42     0.0    1.6    0.0    0.00    0.13
 2016 169    16    15     2.8     0.0     2.8    0.00    3.49      0.3     2.3     2.4     0.5    3.83    2.40     0.0    1.6    0.0    0.01    0.14
 2016 170    17    16     3.3     0.0     3.3    0.00    3.51      0.3     2.8     2.8     0.5    3.84    2.41     0.0    1.6    0.0    0.01    0.15
 2016 171    18    17     3.7     0.0     3.7    0.00    3.40      0.5     3.1     3.1     0.6    3.72    2.33     0.0    1.6    0.2    0.01    0.16
 2016 172    19    18     4.4     0.0     4.4    0.00    3.39      0.6     3.6     3.7     0.7    3.71    2.32     0.0    1.6    0.1    0.02    0.17
 2016 173    20    19     5.1     0.0     5.1    0.00    3.41      0.6     4.4     4.3     0.8    3.74    2.34     0.0    1.6    0.0    0.03    0.18
 2016 174    21    20     5.8     0.0     5.8    0.00    3.35      0.9     4.9     4.9     0.9    3.67    2.30     0.0    1.5    0.2    0.04    0.19
 2016 175    22    21     6.8     0.0     6.8    0.00    3.34      1.1     5.7     5.7     1.1    3.66    2.29     0.0    1.5    0.2    0.06    0.20
 2016 176    23    22     7.4     0.0     7.4    0.00    3.12      1.4     6.1     6.2     1.2    3.43    2.14     0.0    1.5    0.3    0.08    0.21
 2016 177    24    23     8.4     0.0     8.4    0.00    3.08      1.8     6.9     6.9     1.5    3.41    2.14     0.0    1.5    0.3    0.10    0.22
 2016 178    25    24     9.2     0.0     9.2    0.00    2.93      2.2     7.4     7.5     1.7    3.27    2.02     0.0    1.4    0.4    0.11    0.23
 2016 179    26    25    10.5     0.0    10.5    0.00    2.94      2.7     8.4     8.4     2.1    3.29    2.05     0.0    1.4    0.4    0.13    0.24
 2016 180    27    26    12.0     0.0    12.0    0.00    2.96      2.9     9.8     9.5     2.5    3.33    2.09     0.0    1.4    0.1    0.16    0.26
 2016 181    28    27    13.7     0.0    13.7    0.00    3.00      2.9    11.7    10.8     3.0    3.38    2.14     0.0    1.5    0.0    0.17    0.28
 2016 182    29    28    14.9     0.0    14.9    0.00    2.91      3.5    12.4    11.6     3.3    3.30    2.06     0.0    1.4    0.5    0.23    0.30
 2016 183    30    29    16.8     0.0    16.8    0.00    2.96      4.1    14.1    12.9     3.9    3.37    2.10     0.0    1.4    0.5    0.35    0.32
 2016 184    31    30    19.3     0.0    19.3    0.00    3.09      4.1    16.9    14.7     4.6    3.53    2.22     0.0    1.5    0.0    0.47    0.35
 2016 185    32    31    20.1     0.0    20.1    0.00    2.97      4.8    17.5    15.2     5.0    3.42    2.11     0.0    1.4    0.7    0.74    0.37
 2016 186    33    32    22.3     0.0    22.3    0.00    3.00      5.3    19.5    16.6     5.7    3.48    2.15     0.0    1.4    0.4    0.92    0.40
 2016 187    34    33    25.5     0.0    25.5    0.00    3.16      5.3    23.1    18.7     6.8    3.68    2.29     0.0    1.5    0.0    1.12    0.44
 2016 188    35    34    28.6     0.0    28.6    0.00    3.35      5.3    27.4    20.6     7.9    3.92    2.44     0.0    1.5    0.0    1.45    0.49
 2016 189    36    35    29.8     0.0    29.8    0.00    3.26      6.3    28.3    21.3     8.5    3.87    2.33     0.0    1.5    0.8    1.82    0.52
 2016 190    37    36    32.4     0.0    32.4    0.00    3.23      6.5    31.0    22.8     9.6    3.87    2.32     0.0    1.5    0.2    1.98    0.56
 2016 191    38    37    35.7     0.0    35.7    0.00    3.27      6.5    35.1    24.8    10.9    3.93    2.37     0.0    1.5    0.0    2.06    0.62
 2016 192    39    38    37.2     0.0    37.2    0.00    3.14      7.7    36.1    25.6    11.7    3.83    2.25     0.0    1.5    1.0    2.34    0.67
 2016 193    40    39    40.0     0.0    40.0    0.00    3.11      7.8    39.1    27.0    13.0    3.82    2.25     0.0    1.5    0.1    2.52    0.71
 2016 194    41    40    44.2     0.0    44.2    0.00    3.19      7.9    44.4    29.4    14.8    3.91    2.33     0.0    1.5    0.0    2.59    0.79
 2016 195    42    41    47.9     0.0    47.9    0.00    3.24      7.9    48.9    31.4    16.5    3.99    2.38     0.0    1.5    0.0    2.83    0.86
 2016 196    43    42    50.2     0.0    50.2    0.00    3.16      9.3    50.4    32.5    17.7    3.96    2.31     0.0    1.5    1.2    3.16    0.92
 2016 197    44    43    54.2     0.0    54.2    0.00    3.17      9.3    54.8    34.6    19.6    3.98    2.33     0.0    1.5    0.0    3.26    1.03
 2016 198    45    44    58.4     0.0    58.2    0.00    3.21      9.3    59.9    36.8    21.5    4.05    2.36     3.5    1.5    0.0    3.47    1.15
 2016 199    46    45    62.2     0.0    61.5    0.00    3.23      9.3    64.6    38.5    23.0    4.11    2.38     3.5    1.6    0.0    3.72    1.26
 2016 200    47    46    65.9     0.0    64.3    0.00    3.25      9.3    69.0    39.9    24.3    4.15    2.39     3.5    1.6    0.0    3.92    1.37
 2016 201    48    47    68.5     0.0    65.5    0.00    3.19     10.3    71.1    40.4    25.1    4.12    2.34     3.5    1.5    1.0    4.23    1.43
 2016 202    49    48    73.2     0.0    68.2    0.00    3.20     10.3    76.0    41.8    26.4    4.14    2.36     3.5    1.6    0.0    4.25    1.55
 2016 203    50    49    77.5     0.0    70.3    0.00    3.22     10.3    81.2    42.9    27.5    4.19    2.37     3.5    1.6    0.0    4.50    1.66
 2016 204    51    50    79.6     0.1    69.8    3.63    3.15     11.5    82.7    42.3    27.4    4.13    2.30     3.5    1.6    1.1    5.04    1.73
 2016 205    52    51    82.7     0.8    69.4    3.67    3.12     11.5    86.2    41.9    27.4    4.11    2.28     3.5    1.5    0.0    5.44    1.86
 2016 206    53    52    88.0     1.9    69.9    3.71    3.15     11.5    91.8    42.2    27.7    4.14    2.31     3.5    1.6    0.0    5.66    1.98
 2016 207    54    53    91.6     3.4    68.6    3.68    3.12     11.5    95.9    41.3    27.2    4.12    2.29     3.5    1.6    0.0    6.03    2.10
 2016 208    55    54    93.6     5.6    66.7    3.68    3.00     12.7    97.1    40.1    26.6    4.03    2.17     3.4    1.5    1.1    6.40    2.17
 2016 209    56    55    96.8     8.2    65.0    3.69    2.97     14.0    99.7    39.0    26.0    3.99    2.14     3.4    1.5    1.2    6.76    2.24
 2016 210    57    56    99.9    11.3    63.1    3.68    2.92     14.2   103.3    37.8    25.3    3.95    2.11     3.3    1.5    0.1    7.14    2.31
 2016 211    58    57   101.3    15.1    60.9    3.68    2.80     15.7   104.1    36.4    24.5    3.85    1.99     3.3    1.5    1.3    7.83    2.37
 2016 212    59    58   103.8    19.4    58.7    3.67    2.74     17.4   105.7    35.0    23.7    3.79    1.94     3.2    1.5    1.5    8.63    2.43
 2016 213    60    59   106.5    23.7    56.7    3.66    2.69     18.5   108.1    33.7    23.0    3.74    1.91     3.2    1.4    1.1    9.05    2.49
 2016 214    61    60   109.0    28.2    54.5    3.66    2.63     19.4   110.6    32.3    22.2    3.68    1.86     3.1    1.4    0.9    9.70    2.54
 2016 215    62    61   111.0    32.9    52.3    3.65    2.54     21.3   111.2    30.9    21.4    3.59    1.78     3.0    1.4    1.7   10.05    2.59
 2016 216    63    62   113.4    37.5    50.1    3.65    2.48     23.4   112.3    29.5    20.6    3.52    1.74     3.0    1.4    1.9   10.59    2.64
 2016 217    64    63   115.5    42.5    47.8    3.65    2.41     25.1   113.7    28.0    19.8    3.45    1.69     2.9    1.3    1.8   11.38    2.70
 2016 218    65    64   117.7    47.7    45.5    3.66    2.32     27.4   114.0    26.5    19.0    3.35    1.62     2.8    1.3    2.1   11.71    2.75
 2016 219    66    65   120.2    53.0    43.3    3.67    2.25     29.8   114.7    25.1    18.2    3.27    1.58     2.8    1.3    2.3   12.17    2.80
 2016 220    67    66   122.9    58.2    41.3    3.67    2.19     32.1   115.7    23.8    17.4    3.20    1.53     2.7    1.3    2.3   12.50    2.85
 2016 221    68    67   125.7    63.3    39.5    3.67    2.13     34.1   116.7    22.6    16.8    3.12    1.49     2.6    1.3    2.0   12.89    2.89
 2016 222    69    68   128.3    68.6    37.5    3.67    2.05     36.6   117.1    21.4    16.1    3.03    1.44     2.6    1.2    2.4   13.05    2.94
 2016 223    70    69   131.1    73.8    35.7    3.67    1.99     39.1   117.6    20.2    15.5    2.94    1.40     2.5    1.2    2.5   13.29    2.98
 2016 224    71    70   134.1    79.3    34.1    3.68    1.93     41.5   118.3    19.2    14.9    2.87    1.36     2.4    1.2    2.4   13.43    3.02
 2016 225    72    71   136.7    84.2    32.5    3.67    1.87     44.2   118.5    18.2    14.3    2.78    1.32     2.4    1.2    2.5   13.56    3.05
 2016 226    73    72   139.3    89.0    31.0    3.68    1.81     46.6   118.8    17.2    13.8    2.70    1.28     2.3    1.2    2.4   13.68    3.09
 2016 227    74    73   141.9    93.8    29.4    3.68    1.74     48.9   119.1    16.2    13.2    2.61    1.24     2.2    1.2    2.3   13.81    3.13
 2016 228    75    74   144.4    98.6    27.9    3.69    1.67     51.1   119.5    15.2    12.7    2.51    1.19     2.2    1.1    2.2   13.94    3.17
 2016 229    76    75   144.4   100.2    26.8    3.69    1.63     51.1   119.6    14.5    12.3    2.45    1.17     2.1    1.1    0.0   14.03    3.30
 2016 230    77    76   146.9   103.8    26.1    3.69    1.59     53.7   119.6    14.0    12.2    2.39    1.15     2.0    1.1    2.6   14.13    3.33
 2016 231    78    77   149.4   106.9    26.1    3.70    1.57     56.2   119.8    13.8    12.4    2.36    1.15     2.0    1.1    2.5   14.22    3.37
 2016 232    79    78   151.0   108.7    26.3    3.69    1.55     58.6   120.1    13.7    12.7    2.32    1.14     2.0    1.2    2.4   14.30    3.40
 2016 233    80    79   150.9   109.5    25.9    3.68    1.47     58.6   120.5    13.3    12.7    2.22    1.08     1.9    1.2    0.0   14.40    3.44
 2016 234    81    80   147.2   109.9    22.3    3.68    1.37     58.6   120.9     9.9    12.4    2.15    1.06     1.9    1.2    0.0   18.19    3.47
 2016 235    82    81   144.4   109.9    19.7    3.68    1.29     58.6   121.2     7.5    12.3    2.10    1.05     1.8    1.2    0.0   21.03    3.51
 2016 236    83    82   142.6   109.9    18.3    3.68    1.25     58.6   121.7     5.9    12.4    2.10    1.04     1.8    1.2    0.0   23.18    3.56
 2016 237    84    83   141.2   109.9    17.3    3.68    1.21     58.6   122.1     4.8    12.5    2.12    1.04     1.7    1.2    0.0   24.88    3.61
 2016 238    85    84   139.9   109.9    16.3    3.68    1.18     58.6   122.6     3.8    12.5    2.14    1.03     1.7    1.2    0.0   26.25    3.67
 2016 239    86    85   138.8   109.9    15.5    3.68    1.14     58.6   123.0     3.1    12.4    2.16    1.02     1.7    1.2    0.0   27.35    3.80
 2016 240    87    86   138.0   109.9    14.9    3.68    1.13     58.6   123.6     2.5    12.4    2.21    1.03     1.7    1.2    0.0   28.23    3.95
 2016 241    88    87   137.6   109.9    14.5    3.68    1.12     58.6   124.2     2.0    12.5    2.28    1.04     1.7    1.2    0.0   28.94    4.10
 2016 242    89    88   137.2   109.9    14.1    3.68    1.12     58.6   124.6     1.6    12.5    2.35    1.05     1.7    1.2    0.0   29.51    4.25

*DSSAT Cropping System Model Ver. 4.7.5.007 -  MAR 01, 2026 21:19:28
@YEAR DOY   DAS   DAP    CNAD    GNAD    VNAD    GN%D    VN%D     NFXC    NUPC    LNAD    SNAD    LN%D    SN%D    SHND   RN%D   NFXD   SNN0C   SNN1C
 2017 108     1     0     0.0     0.0     0.0    0.00    0.00      0.0     0.0     0.0     0.0    0.00    0.00     0.0    0.0    0.0    0.00    0.00
 2017 109     2     1     0.0     0.0     0.0    0.00    0.00      0.0     0.0     0.0     0.0    0.00    0.00     0.0    0.0    0.0    0.00    0.00
 2017 110     3     2     0.0     0.0     0.0    0.00    0.00      0.0     0.0     0.0     0.0    0.00    0.00     0.0    0.0    0.0    0.00    0.00
 2017 111     4     3     0.0     0.0     0.0    0.00    0.00      0.0     0.0     0.0     0.0    0.00    0.00     0.0    0.0    0.0    0.00    0.00
 2017 112     5     4     0.6     0.0     0.6    0.00    3.41      0.2     0.0     0.5     0.1    3.84    2.40     0.0    1.6    0.0    0.00    0.01
 2017 113     6     5     0.6     0.0     0.6    0.00    3.41      0.2     0.1     0.5     0.1    3.81    2.38     0.0    1.6    0.0    0.00    0.02
 2017 114     7     6     0.7     0.0     0.7    0.00    3.47      0.2     0.2     0.6     0.1    3.84    2.39     0.0    1.6    0.0    0.00    0.04
 2017 115     8     7     0.9     0.0     0.9    0.00    3.45      0.2     0.3     0.7     0.1    3.79    2.35     0.0    1.6    0.0    0.00    0.05
 2017 116     9     8     1.0     0.0     1.0    0.00    3.49      0.2     0.4     0.8     0.2    3.84    2.39     0.0    1.6    0.0    0.00    0.06
 2017 117    10     9     1.1     0.0     1.1    0.00    3.39      0.2     0.5     0.9     0.2    3.75    2.32     0.0    1.6    0.0    0.00    0.07
 2017 118    11    10     1.3     0.0     1.3    0.00    3.44      0.2     0.7     1.0     0.2    3.82    2.42     0.0    1.6    0.0    0.00    0.08
 2017 119    12    11     1.5     0.0     1.5    0.00    3.47      0.2     1.0     1.2     0.3    3.84    2.43     0.0    1.6    0.0    0.00    0.09
 2017 120    13    12     1.8     0.0     1.8    0.00    3.49      0.2     1.3     1.5     0.3    3.85    2.43     0.0    1.6    0.0    0.00    0.10
 2017 121    14    13     2.1     0.0     2.1    0.00    3.50      0.2     1.6     1.7     0.4    3.85    2.43     0.0    1.6    0.0    0.00    0.11
 2017 122    15    14     2.5     0.0     2.5    0.00    3.48      0.4     1.9     2.1     0.4    3.82    2.40     0.0    1.6    0.1    0.01    0.12
 2017 123    16    15     2.9     0.0     2.9    0.00    3.50      0.4     2.3     2.4     0.5    3.84    2.42     0.0    1.6    0.0    0.01    0.13
 2017 124    17    16     3.4     0.0     3.4    0.00    3.51      0.4     2.9     2.8     0.5    3.85    2.42     0.0    1.6    0.0    0.01    0.14
 2017 125    18    17     3.8     0.0     3.8    0.00    3.44      0.6     3.3     3.2     0.6    3.77    2.37     0.0    1.6    0.2    0.02    0.15
 2017 126    19    18     4.5     0.0     4.5    0.00    3.50      0.6     4.1     3.8     0.7    3.83    2.41     0.0    1.6    0.0    0.02    0.16
 2017 127    20    19     5.0     0.0     5.0    0.00    3.28      0.8     4.4     4.2     0.8    3.59    2.25     0.0    1.5    0.2    0.03    0.17
 2017 128    21    20     5.8     0.0     5.8    0.00    3.33      0.9     5.2     4.8     0.9    3.65    2.29     0.0    1.6    0.1    0.04    0.19
 2017 129    22    21     6.8     0.0     6.8    0.00    3.46      0.9     6.7     5.7     1.1    3.79    2.38     0.0    1.6    0.0    0.04    0.21
 2017 130    23    22     7.9     0.0     7.9    0.00    3.50      0.9     8.0     6.6     1.3    3.82    2.41     0.0    1.6    0.0    0.04    0.23
 2017 131    24    23     9.1     0.0     9.1    0.00    3.51      0.9     9.5     7.7     1.5    3.84    2.42     0.0    1.6    0.0    0.04    0.25
 2017 132    25    24    10.3     0.0    10.3    0.00    3.44      1.2    10.5     8.5     1.8    3.79    2.38     0.0    1.6    0.3    0.07    0.27
 2017 133    26    25    11.8     0.0    11.8    0.00    3.41      1.2    12.1     9.6     2.2    3.78    2.37     0.0    1.6    0.0    0.09    0.29
 2017 134    27    26    13.6     0.0    13.6    0.00    3.40      1.2    14.0    11.0     2.6    3.79    2.38     0.0    1.6    0.0    0.10    0.31
 2017 135    28    27    15.5     0.0    15.5    0.00    3.46      1.3    16.1    12.3     3.1    3.87    2.43     0.0    1.6    0.0    0.19    0.34
 2017 136    29    28    16.6     0.0    16.6    0.00    3.30      1.7    17.1    13.1     3.5    3.74    2.29     0.0    1.6    0.3    0.37    0.36
 2017 137    30    29    17.2     0.0    17.2    0.00    3.14      2.1    17.7    13.5     3.7    3.58    2.16     0.0    1.5    0.4    0.51    0.39
 2017 138    31    30    19.1     0.0    19.1    0.00    3.11      2.7    19.3    14.8     4.3    3.58    2.15     0.0    1.5    0.5    0.66    0.42
 2017 139    32    31    19.9     0.0    19.9    0.00    2.98      3.3    20.0    15.3     4.6    3.46    2.05     0.0    1.4    0.6    0.87    0.45
 2017 140    33    32    21.0     0.0    21.0    0.00    3.11      3.3    21.3    16.0     5.0    3.61    2.17     0.0    1.5    0.0    1.00    0.50
 2017 141    34    33    23.4     0.0    23.4    0.00    3.21      3.4    24.1    17.6     5.9    3.74    2.25     0.0    1.5    0.0    1.21    0.54
 2017 142    35    34    24.5     0.0    24.5    0.00    3.10      4.1    25.0    18.1     6.4    3.67    2.15     0.0    1.5    0.6    1.56    0.58
 2017 143    36    35    26.9     0.0    26.9    0.00    3.09      4.1    27.8    19.6     7.4    3.69    2.17     0.0    1.5    0.0    1.72    0.63
 2017 144    37    36    31.0     0.0    31.0    0.00    3.25      4.2    32.5    22.1     8.9    3.86    2.34     0.0    1.5    0.0    1.80    0.69
 2017 145    38    37    34.2     0.0    34.2    0.00    3.31      4.2    36.3    24.0    10.2    3.97    2.39     0.0    1.5    0.0    2.04    0.75
 2017 146    39    38    37.4     0.0    37.4    0.00    3.34      4.2    40.0    25.8    11.6    4.03    2.42     0.0    1.5    0.0    2.23    0.80
 2017 147    40    39    39.9     0.0    39.9    0.00    3.32      4.6    42.6    27.1    12.8    4.05    2.40     0.0    1.5    0.4    2.50    0.85
 2017 148    41    40    43.2     0.0    43.2    0.00    3.31      4.7    46.6    29.0    14.2    4.06    2.41     0.0    1.5    0.0    2.57    0.91
 2017 149    42    41    46.6     0.0    46.6    0.00    3.32      4.7    50.5    30.9    15.7    4.11    2.42     0.0    1.6    0.0    2.76    1.00
 2017 150    43    42    50.0     0.0    50.0    0.00    3.33      4.7    54.6    32.7    17.2    4.15    2.42     3.5    1.6    0.0    2.97    1.09
 2017 151    44    43    53.6     0.0    53.0    0.00    3.34      4.7    58.8    34.4    18.6    4.19    2.42     3.5    1.6    0.0    3.18    1.18
 2017 152    45    44    55.6     0.0    54.1    0.00    3.28      5.3    60.6    34.8    19.3    4.17    2.37     3.5    1.5    0.7    3.48    1.24
 2017 153    46    45    57.8     0.0    54.8    0.00    3.24      5.3    62.9    35.1    19.8    4.13    2.34     3.5    1.5    0.0    3.58    1.32
 2017 154    47    46    60.9     0.0    56.2    0.00    3.20      5.3    66.3    35.7    20.6    4.10    2.31     3.5    1.5    0.0    3.69    1.42
 2017 155    48    47    64.4     0.0    57.4    0.00    3.17      5.3    70.0    36.2    21.2    4.07    2.30     3.5    1.5    0.0    3.78    1.52
 2017 156    49    48    66.7     0.1    57.0    3.68    3.08      5.4    72.5    35.8    21.2    3.99    2.22     3.4    1.5    0.1    4.01    1.59
 2017 157    50    49    68.8     0.7    55.7    3.65    2.97      6.2    74.1    34.9    20.8    3.90    2.11     3.4    1.5    0.7    4.23    1.65
 2017 158    51    50    71.5     1.8    54.3    3.64    2.90      7.2    76.2    34.0    20.3    3.85    2.06     3.4    1.5    0.8    4.44    1.72
 2017 159    52    51    74.3     3.5    52.9    3.66    2.84      8.3    78.1    33.1    19.8    3.79    2.00     3.4    1.5    1.0    4.64    1.78
 2017 160    53    52    76.8     5.5    51.6    3.64    2.78      9.5    79.7    32.2    19.4    3.74    1.95     3.3    1.4    1.1    4.86    1.84
 2017 161    54    53    79.0     7.8    50.5    3.60    2.74     11.0    80.9    31.5    19.0    3.70    1.91     3.3    1.4    1.3    5.13    1.88
 2017 162    55    54    81.4    10.7    49.2    3.59    2.68     12.7    81.9    30.6    18.6    3.64    1.87     3.3    1.4    1.5    5.24    1.92
 2017 163    56    55    83.2    14.0    47.5    3.61    2.63     14.6    82.9    29.5    18.0    3.59    1.82     3.2    1.4    1.7    6.19    1.98
 2017 164    57    56    85.2    17.6    45.7    3.62    2.57     16.7    83.9    28.3    17.4    3.53    1.79     3.2    1.4    1.9    7.03    2.03
 2017 165    58    57    87.4    21.3    43.9    3.62    2.52     18.8    84.8    27.1    16.8    3.47    1.75     3.1    1.4    2.1    7.58    2.09
 2017 166    59    58    89.4    25.1    42.3    3.62    2.47     21.1    85.4    26.0    16.2    3.41    1.71     3.1    1.3    2.2    8.24    2.13
 2017 167    60    59    91.5    29.0    40.6    3.62    2.42     23.4    86.0    25.0    15.7    3.36    1.67     3.0    1.3    2.2    8.75    2.18
 2017 168    61    60    93.6    33.1    39.0    3.61    2.36     25.7    86.4    23.9    15.2    3.29    1.64     3.0    1.3    2.3    9.19    2.22
 2017 169    62    61    94.7    36.7    37.3    3.58    2.30     26.5    86.7    22.7    14.6    3.22    1.59     2.9    1.3    0.8    9.34    2.30
 2017 170    63    62    96.8    41.0    35.6    3.58    2.24     28.4    87.2    21.6    14.0    3.14    1.55     2.8    1.3    1.8    9.49    2.34
 2017 171    64    63    98.9    44.9    34.2    3.58    2.18     30.5    87.5    20.7    13.5    3.08    1.51     2.7    1.3    2.1    9.83    2.37
 2017 172    65    64   101.1    49.1    32.8    3.58    2.13     32.7    87.8    19.7    13.1    3.02    1.48     2.7    1.2    2.2   10.11    2.41
 2017 173    66    65   102.7    53.1    30.8    3.58    2.07     34.7    88.2    18.2    12.5    2.95    1.44     2.6    1.2    2.0   10.96    2.44
 2017 174    67    66   105.0    57.3    29.6    3.58    2.02     36.7    88.6    17.4    12.1    2.89    1.41     2.6    1.2    2.0   11.06    2.47
 2017 175    68    67   107.3    61.3    28.4    3.58    1.97     38.7    88.9    16.6    11.7    2.82    1.38     2.5    1.2    2.0   11.17    2.50
 2017 176    69    68   109.5    64.9    27.3    3.57    1.92     40.6    89.3    16.0    11.4    2.76    1.35     2.4    1.2    1.8   11.25    2.53
 2017 177    70    69   111.5    68.5    26.3    3.57    1.88     42.7    89.6    15.3    11.0    2.70    1.32     2.4    1.2    2.1   11.44    2.56
 2017 178    71    70   113.6    71.9    25.3    3.57    1.83     44.8    89.8    14.6    10.7    2.64    1.29     2.3    1.2    2.1   11.64    2.59
 2017 179    72    71   115.7    75.4    24.3    3.57    1.78     46.9    90.1    13.9    10.4    2.58    1.26     2.3    1.1    2.1   11.84    2.61
 2017 180    73    72   117.8    78.8    23.4    3.57    1.74     49.1    90.4    13.3    10.0    2.51    1.24     2.3    1.1    2.2   11.94    2.64
 2017 181    74    73   119.8    82.1    22.5    3.58    1.70     50.9    90.6    12.7     9.7    2.45    1.21     2.2    1.1    1.8   12.01    2.67
 2017 182    75    74   121.9    85.0    21.7    3.58    1.65     52.9    90.9    12.2     9.5    2.39    1.18     2.2    1.1    2.1   12.13    2.70
 2017 183    76    75   123.5    87.2    21.2    3.58    1.62     55.0    91.1    11.8     9.4    2.33    1.16     2.1    1.1    2.0   12.20    2.72
 2017 184    77    76   125.2    88.6    21.4    3.58    1.62     56.6    91.4    11.8     9.7    2.33    1.18     2.1    1.1    1.6   12.37    2.75
 2017 185    78    77   126.6    89.7    21.8    3.58    1.62     58.0    91.6    11.8    10.0    2.33    1.19     2.1    1.1    1.3   12.50    2.77
 2017 186    79    78   127.7    89.9    22.7    3.58    1.63     59.0    91.9    12.1    10.6    2.34    1.21     2.1    1.2    1.0   12.60    2.79
 2017 187    80    79   128.5    90.2    23.3    3.58    1.62     60.2    92.1    12.3    11.0    2.33    1.21     2.1    1.2    1.2   12.67    2.81
 2017 188    81    80   129.2    90.5    23.8    3.58    1.60     61.5    92.4    12.4    11.4    2.30    1.20     2.1    1.2    1.3   12.74    2.84
 2017 189    82    81   129.0    90.8    23.4    3.58    1.55     61.5    92.5    12.1    11.3    2.24    1.16     2.0    1.2    0.0   12.81    2.90
 2017 190    83    82   124.8    91.1    19.3    3.58    1.43     61.5    92.8     8.7    10.6    2.14    1.13     2.0    1.2    0.0   16.32    3.02
 2017 191    84    83   122.4    91.4    16.7    3.58    1.33     61.5    93.0     6.4    10.3    2.06    1.09     1.9    1.2    0.0   18.83    3.06
 2017 192    85    84   120.7    91.7    15.0    3.58    1.26     61.5    93.2     4.9    10.1    2.01    1.07     1.9    1.2    0.0   20.69    3.10
 2017 193    86    85   119.6    92.1    13.8    3.58    1.22     61.5    93.6     3.8    10.0    2.02    1.06     1.9    1.2    0.0   22.11    3.14
 2017 194    87    86   118.7    92.4    12.9    3.58    1.18     61.5    93.8     3.0     9.9    2.02    1.05     1.8    1.2    0.0   23.23    3.19
 2017 195    88    87   117.9    92.7    12.1    3.58    1.15     61.5    94.0     2.3     9.7    2.03    1.04     1.8    1.1    0.0   24.09    3.31
 2017 196    89    88   117.3    93.0    11.4    3.58    1.12     61.5    94.3     1.8     9.6    2.04    1.04     1.8    1.1    0.0   24.77    3.43
 2017 197    90    89   116.9    93.2    11.0    3.58    1.11     61.5    94.6     1.4     9.6    2.08    1.04     1.8    1.1    0.0   25.29    3.55
 2017 198    91    90   116.7    93.4    10.6    3.58    1.10     61.5    94.9     1.1     9.5    2.10    1.04     1.8    1.1    0.0   25.70    3.67
