*SOIL WATER DAILY OUTPUT FILE

*DSSAT Cropping System Model Ver. 4.7.5.007 -  MAR 01, 2026 21:19:28
!                                                                                                 Soil water content (mm3/mm3) by soil depth (cm):
!                                                                                                0-10   10-20   20-30   30-40   40-50   50-60   60-70   70-80   80-90
@YEAR DOY   DAS  SWTD  SWXD   ROFC   DRNC   PREC  IR#C  IRRC  DTWT    MWTD  TDFD  TDFC   ROFD    SW1D    SW2D    SW3D    SW4D    SW5D    SW6D    SW7D    SW8D    SW9D
 2015 102     0   353    88      0      0      0     0     0     0    0.00   0.0   0.0   0.00   0.377   0.387   0.380   0.398   0.398   0.398   0.398   0.398   0.398
 2015 103     1   375   110      0      0      5     1    20    45    0.00   0.0   0.0   0.05   0.434   0.421   0.425   0.438   0.436   0.407   0.398   0.396   0.395
 2015 104     2   379   113      1      0     13     1    20    90    0.00   0.0   0.0   0.71   0.426   0.419   0.425   0.438   0.439   0.437   0.409   0.399   0.394
 2015 105     3   376   110      1      0     13     1    20    90    0.00   0.0   0.0   0.00   0.411   0.415   0.418   0.435   0.435   0.434   0.414   0.401   0.394
 2015 106     4   385   119      4      0     29     1    20    89    0.00   0.0   0.0   3.17   0.424   0.418   0.425   0.438   0.438   0.439   0.439   0.424   0.402
 2015 107     5   382   116      4      1     31     1    20    88    0.00   0.0   0.0   0.00   0.411   0.415   0.417   0.435   0.435   0.436   0.437   0.426   0.408
 2015 108     6   389   124      4      9     31     2    40    83    0.00   0.0   0.0   0.00   0.422   0.417   0.424   0.437   0.438   0.438   0.439   0.439   0.439
 2015 109     7   375   110      4     20     31     2    40    86    0.00   0.0   0.0   0.00   0.404   0.404   0.407   0.422   0.422   0.423   0.423   0.423   0.423
 2015 110     8   379   114      5     21     40     2    40    86    0.00   0.0   0.0   0.80   0.434   0.421   0.417   0.423   0.420   0.420   0.420   0.420   0.420
 2015 111     9   383   117      6     22     50     2    40    87    0.00   0.0   0.0   1.29   0.423   0.417   0.424   0.438   0.438   0.431   0.421   0.419   0.418
 2015 112    10   371   105      6     31     50     2    40    88    0.00   0.0   0.0   0.00   0.404   0.404   0.407   0.422   0.423   0.417   0.411   0.409   0.409
 2015 113    11   386   121      6     31     50     3    60    88    0.00   0.0   0.0   0.00   0.433   0.420   0.425   0.438   0.438   0.438   0.438   0.424   0.411
 2015 114    12   382   117      6     32     51     3    60    88    0.00   0.0   0.0   0.00   0.414   0.416   0.417   0.434   0.434   0.434   0.434   0.425   0.412
 2015 115    13   370   104      6     41     51     3    60    89    0.00   0.0   0.0   0.00   0.398   0.402   0.402   0.420   0.420   0.419   0.419   0.413   0.405
 2015 116    14   372   106      6     41     57     3    60    89    0.00   0.0   0.0   0.24   0.430   0.408   0.398   0.416   0.416   0.416   0.416   0.411   0.404
 2015 117    15   367   102      6     42     57     3    60    89    0.00   0.0   0.0   0.00   0.410   0.406   0.396   0.413   0.413   0.412   0.412   0.409   0.403
 2015 118    16   390   124      9     43     69     4    80    85    0.00   0.0   0.0   3.00   0.440   0.415   0.423   0.437   0.438   0.438   0.439   0.439   0.428
 2015 119    17   374   109      9     54     69     4    80    87    0.00   0.0   0.0   0.00   0.414   0.400   0.404   0.421   0.422   0.422   0.423   0.423   0.416
 2015 120    18   381   115      9     55     69     5    91    87    0.00   0.0   0.0   0.00   0.424   0.418   0.424   0.437   0.425   0.422   0.421   0.421   0.416
 2015 121    19   369   103      9     63     69     5    91    89    0.00   0.0   0.0   0.00   0.403   0.402   0.406   0.421   0.413   0.411   0.411   0.411   0.407
 2015 122    20   360    94      9     68     69     5    91    90    0.00   0.0   0.0   0.00   0.388   0.392   0.392   0.410   0.405   0.404   0.403   0.403   0.401
 2015 123    21   354    88      9     70     69     5    91    90    0.00   0.0   0.0   0.00   0.377   0.385   0.383   0.402   0.399   0.399   0.398   0.398   0.397
 2015 124    22   361    95      9     70     69     6   100    90    0.00   0.0   0.0   0.00   0.434   0.403   0.385   0.401   0.398   0.397   0.396   0.396   0.395
 2015 125    23   363    97     10     70     75     6   100    90    0.00   0.0   0.0   0.30   0.424   0.418   0.401   0.405   0.399   0.397   0.395   0.395   0.393
 2015 126    24   377   112     16     70     98     6   100    90    0.00   0.0   0.0   6.37   0.430   0.420   0.426   0.440   0.440   0.425   0.403   0.397   0.393
 2015 127    25   374   108     16     70     98     6   100    90    0.00   0.0   0.0   0.00   0.411   0.414   0.417   0.436   0.436   0.426   0.408   0.398   0.391
 2015 128    26   365    99     16     75     98     6   100    90    0.00   0.0   0.0   0.00   0.394   0.400   0.401   0.421   0.422   0.415   0.402   0.395   0.395
 2015 129    27   358    93     16     78     98     6   100    90    0.00   0.0   0.0   0.00   0.382   0.391   0.389   0.410   0.412   0.408   0.399   0.396   0.396
 2015 130    28   353    88     16     80     98     6   100    90    0.00   0.0   0.0   0.00   0.373   0.384   0.381   0.403   0.405   0.402   0.396   0.395   0.395
 2015 131    29   375   110     27     80    132     6   100    90    0.01   0.0   0.0  11.12   0.435   0.422   0.427   0.440   0.428   0.409   0.400   0.396   0.395
 2015 132    30   367   102     27     86    132     6   100    90    0.01   0.0   0.0   0.00   0.413   0.408   0.410   0.425   0.418   0.405   0.399   0.397   0.397
 2015 133    31   365    99     27     86    133     6   100    90    0.01   0.0   0.0   0.00   0.399   0.404   0.403   0.423   0.418   0.408   0.400   0.397   0.395
 2015 134    32   373   107     27     86    133     7   111    90    0.01   0.0   0.0   0.00   0.430   0.419   0.424   0.430   0.421   0.411   0.402   0.398   0.394
 2015 135    33   383   118     27     86    133     8   124    90    0.01   0.0   0.0   0.00   0.428   0.418   0.425   0.439   0.440   0.441   0.435   0.409   0.398
 2015 136    34   372   106     27     95    133     8   124    90    0.02   0.0   0.0   0.00   0.407   0.404   0.408   0.424   0.426   0.427   0.423   0.404   0.397
 2015 137    35   363    97     27    100    133     8   124    90    0.02   0.0   0.0   0.00   0.389   0.392   0.393   0.412   0.415   0.416   0.414   0.401   0.396
 2015 138    36   357    91     27    103    133     8   124    90    0.02   0.0   0.0   0.00   0.376   0.385   0.383   0.405   0.408   0.409   0.407   0.399   0.396
 2015 139    37   363    97     27    103    134     9   132    90    0.04   0.0   0.0   0.00   0.430   0.400   0.382   0.402   0.405   0.407   0.406   0.400   0.397
 2015 140    38   360    95     27    103    134     9   132    90    0.05   0.0   0.0   0.00   0.410   0.401   0.384   0.400   0.403   0.405   0.405   0.401   0.397
 2015 141    39   355    90     27    105    134     9   132    90    0.06   0.0   0.0   0.00   0.387   0.389   0.378   0.398   0.399   0.401   0.401   0.399   0.397
 2015 142    40   371   106     27    105    134    10   151    90    0.05   0.0   0.0   0.00   0.426   0.418   0.425   0.433   0.409   0.403   0.401   0.399   0.396
 2015 143    41   363    98     27    110    134    10   151    90    0.05   0.0   0.0   0.00   0.403   0.402   0.406   0.420   0.404   0.400   0.399   0.398   0.397
 2015 144    42   357    91     27    113    134    10   151    90    0.06   0.0   0.0   0.00   0.385   0.391   0.392   0.410   0.401   0.399   0.398   0.397   0.397
 2015 145    43   352    87     27    114    134    10   151    90    0.05   0.0   0.0   0.00   0.370   0.383   0.380   0.402   0.399   0.398   0.397   0.397   0.397
 2015 146    44   376   110     27    114    134    11   178    90    0.05   0.0   0.0   0.00   0.427   0.416   0.421   0.437   0.439   0.419   0.403   0.398   0.396
 2015 147    45   366   100     27    120    134    11   178    90    0.05   0.0   0.0   0.00   0.402   0.399   0.403   0.422   0.425   0.411   0.400   0.397   0.397
 2015 148    46   359    94     27    124    134    11   178    90    0.06   0.0   0.0   0.00   0.385   0.390   0.390   0.411   0.415   0.407   0.400   0.397   0.397
 2015 149    47   354    89     27    125    134    11   178    90    0.05   0.0   0.0   0.00   0.372   0.384   0.380   0.404   0.408   0.403   0.399   0.397   0.397
 2015 150    48   350    85     27    126    134    11   178    90    0.05   0.0   0.0   0.00   0.361   0.376   0.373   0.398   0.403   0.401   0.398   0.397   0.397
 2015 151    49   347    81     27    126    134    11   178    90    0.05   0.0   0.0   0.00   0.352   0.368   0.365   0.393   0.399   0.400   0.397   0.397   0.397
 2015 152    50   360    94     27    126    134    12   194    90    0.05   0.0   0.0   0.00   0.431   0.418   0.376   0.389   0.397   0.399   0.396   0.396   0.396
 2015 153    51   356    90     27    126    134    12   194    90    0.05   0.0   0.0   0.00   0.401   0.397   0.377   0.396   0.397   0.398   0.397   0.397   0.397
 2015 154    52   352    87     27    127    134    12   194    90    0.05   0.0   0.0   0.00   0.380   0.387   0.376   0.396   0.397   0.397   0.397   0.397   0.397
 2015 155    53   349    83     27    127    134    12   194    90    0.04   0.0   0.0   0.00   0.366   0.379   0.371   0.393   0.395   0.396   0.396   0.396   0.396
 2015 156    54   364    98     27    127    134    13   212    90    0.04   0.0   0.0   0.00   0.427   0.416   0.411   0.402   0.397   0.395   0.395   0.395   0.395
 2015 157    55   358    92     27    129    134    13   212    90    0.04   0.0   0.0   0.00   0.401   0.398   0.395   0.399   0.397   0.397   0.397   0.397   0.397
 2015 158    56   353    88     27    130    134    13   212    90    0.04   0.0   0.0   0.00   0.381   0.387   0.383   0.397   0.397   0.397   0.397   0.397   0.397
 2015 159    57   350    85     27    130    134    13   212    90    0.04   0.0   0.0   0.00   0.368   0.380   0.376   0.395   0.396   0.396   0.396   0.396   0.396
 2015 160    58   369   104     27    130    134    14   235    90    0.04   0.0   0.0   0.00   0.427   0.416   0.422   0.437   0.408   0.399   0.396   0.395   0.395
 2015 161    59   363    97     27    134    134    14   235    90    0.04   0.0   0.0   0.00   0.405   0.401   0.405   0.422   0.404   0.399   0.397   0.397   0.397
 2015 162    60   357    91     27    137    134    14   235    90    0.04   0.0   0.0   0.00   0.386   0.390   0.390   0.411   0.401   0.398   0.397   0.397   0.397
 2015 163    61   376   110     27    137    134    15   257    90    0.04   0.0   0.0   0.00   0.427   0.419   0.423   0.438   0.440   0.414   0.401   0.398   0.396
 2015 164    62   366   100     27    144    134    15   257    90    0.04   0.0   0.0   0.00   0.402   0.401   0.404   0.422   0.426   0.408   0.399   0.397   0.397
 2015 165    63   359    93     27    147    134    15   257    90    0.03   0.0   0.0   0.00   0.384   0.390   0.390   0.411   0.415   0.404   0.398   0.397   0.397
 2015 166    64   354    88     27    149    134    15   257    90    0.03   0.0   0.0   0.00   0.371   0.383   0.380   0.404   0.408   0.401   0.397   0.397   0.397
 2015 167    65   362    96     27    149    134    16   268    90    0.03   0.0   0.0   0.00   0.429   0.409   0.382   0.401   0.405   0.402   0.399   0.396   0.396
 2015 168    66   357    92     27    151    134    16   268    90    0.03   0.0   0.0   0.00   0.404   0.395   0.379   0.399   0.402   0.400   0.398   0.397   0.397
 2015 169    67   353    88     27    152    134    16   268    90    0.03   0.0   0.0   0.00   0.384   0.386   0.376   0.397   0.399   0.399   0.397   0.397   0.397
 2015 170    68   350    85     27    152    134    16   268    90    0.03   0.0   0.0   0.00   0.370   0.381   0.373   0.394   0.398   0.398   0.396   0.396   0.396
 2015 171    69   347    82     27    152    134    16   268    90    0.03   0.0   0.0   0.00   0.356   0.375   0.369   0.392   0.397   0.398   0.396   0.396   0.396
 2015 172    70   354    89     27    152    134    17   278    90    0.03   0.0   0.0   0.00   0.428   0.387   0.366   0.388   0.395   0.397   0.395   0.395   0.395
 2015 173    71   352    86     27    152    134    17   278    90    0.02   0.0   0.0   0.00   0.399   0.382   0.377   0.387   0.394   0.396   0.394   0.394   0.394
 2015 174    72   349    83     27    152    134    17   278    90    0.02   0.0   0.0   0.00   0.377   0.383   0.375   0.385   0.392   0.394   0.393   0.393   0.393
 2015 175    73   346    80     27    152    134    17   278    90    0.02   0.0   0.0   0.00   0.368   0.377   0.371   0.384   0.391   0.394   0.392   0.392   0.392
 2015 176    74   343    77     27    152    134    17   278    90    0.02   0.0   0.0   0.00   0.352   0.370   0.366   0.382   0.390   0.393   0.392   0.392   0.392
 2015 177    75   350    85     27    152    134    18   288    90    0.02   0.0   0.0   0.00   0.426   0.384   0.362   0.379   0.388   0.392   0.391   0.391   0.391
 2015 178    76   348    82     27    152    134    18   288    90    0.01   0.0   0.0   0.00   0.397   0.382   0.372   0.378   0.387   0.391   0.389   0.389   0.389
 2015 179    77   345    79     27    152    134    18   288    90    0.01   0.0   0.0   0.00   0.377   0.383   0.370   0.376   0.386   0.390   0.388   0.388   0.388
 2015 180    78   341    76     27    152    134    18   288    90    0.01   0.0   0.0   0.00   0.365   0.376   0.365   0.374   0.384   0.389   0.387   0.387   0.387
 2015 181    79   339    73     27    152    134    18   288    90    0.01   0.0   0.0   0.00   0.351   0.370   0.361   0.373   0.383   0.389   0.387   0.387   0.387
 2015 182    80   337    71     27    152    134    18   288    90    0.01   0.0   0.0   0.00   0.340   0.365   0.358   0.372   0.383   0.389   0.387   0.387   0.387
 2015 183    81   335    69     27    152    134    18   288    90    0.01   0.0   0.0   0.00   0.332   0.361   0.356   0.371   0.382   0.389   0.387   0.387   0.387
 2015 184    82   333    68     27    152    134    18   288    90    0.01   0.0   0.0   0.00   0.324   0.357   0.353   0.370   0.382   0.388   0.387   0.387   0.387
 2015 185    83   332    66     27    152    134    18   288    90    0.01   0.0   0.0   0.00   0.317   0.354   0.351   0.368   0.381   0.388   0.387   0.387   0.387
 2015 186    84   331    65     27    152    134    18   288    90    0.01   0.0   0.0   0.00   0.310   0.351   0.348   0.367   0.381   0.388   0.387   0.387   0.387
 2015 187    85   329    64     27    152    134    18   288    90    0.04   0.0   0.0   0.00   0.304   0.348   0.346   0.366   0.380   0.388   0.387   0.387   0.387
 2015 188    86   328    63     27    152    134    18   288    90    0.05   0.0   0.0   0.00   0.299   0.346   0.345   0.366   0.380   0.388   0.387   0.387   0.387
 2015 189    87   329    64     27    152    136    18   288    90    0.49   0.0   0.0   0.00   0.311   0.346   0.344   0.365   0.379   0.388   0.387   0.387   0.387
 2015 190    88   328    63     27    152    136    18   288    90    0.36   0.0   0.0   0.00   0.304   0.343   0.342   0.364   0.379   0.388   0.386   0.387   0.387
 2015 191    89   327    61     27    152    136    18   288    90    0.25   0.0   0.0   0.00   0.298   0.341   0.341   0.363   0.378   0.388   0.386   0.387   0.387
 2015 192    90   326    60     27    152    136    18   288    90    0.18   0.0   0.0   0.00   0.293   0.339   0.339   0.362   0.378   0.388   0.386   0.387   0.387
 2015 193    91   325    59     27    152    136    18   288    90    0.13   0.0   0.0   0.00   0.287   0.337   0.338   0.362   0.377   0.388   0.386   0.386   0.387

*DSSAT Cropping System Model Ver. 4.7.5.007 -  MAR 01, 2026 21:19:28
!                                                                                                 Soil water content (mm3/mm3) by soil depth (cm):
!                                                                                                0-10   10-20   20-30   30-40   40-50   50-60   60-70   70-80   80-90
@YEAR DOY   DAS  SWTD  SWXD   ROFC   DRNC   PREC  IR#C  IRRC  DTWT    MWTD  TDFD  TDFC   ROFD    SW1D    SW2D    SW3D    SW4D    SW5D    SW6D    SW7D    SW8D    SW9D
 2015 125     0   353    88      0      0      0     0     0     0    0.00   0.0   0.0   0.00   0.377   0.387   0.380   0.398   0.398   0.398   0.398   0.398   0.398
 2015 126     1   383   118     11      0     23     1    20    45    0.00   0.0   0.0  10.90   0.457   0.422   0.427   0.439   0.439   0.439   0.412   0.401   0.398
 2015 127     2   379   114     11      0     24     1    20    90    0.00   0.0   0.0   0.00   0.422   0.417   0.423   0.437   0.436   0.436   0.418   0.404   0.399
 2015 128     3   368   103     11      8     24     1    20    90    0.00   0.0   0.0   0.00   0.405   0.405   0.406   0.422   0.421   0.421   0.408   0.399   0.395
 2015 129     4   361    95     11     12     24     1    20    90    0.00   0.0   0.0   0.00   0.393   0.396   0.395   0.411   0.411   0.411   0.402   0.396   0.395
 2015 130     5   378   112     11     12     24     2    40    90    0.00   0.0   0.0   0.00   0.434   0.421   0.425   0.438   0.438   0.426   0.407   0.397   0.391
 2015 131     6   393   127     24     17     58     2    40    83    0.00   0.0   0.0  12.71   0.434   0.422   0.428   0.440   0.441   0.441   0.441   0.441   0.441
 2015 132     7   379   113     24     29     58     2    40    86    0.00   0.0   0.0   0.00   0.414   0.409   0.411   0.425   0.425   0.425   0.425   0.426   0.426
 2015 133     8   375   109     24     30     58     2    40    86    0.00   0.0   0.0   0.00   0.402   0.407   0.406   0.423   0.422   0.422   0.422   0.422   0.423
 2015 134     9   365   100     24     37     58     2    40    88    0.00   0.0   0.0   0.00   0.391   0.397   0.394   0.412   0.411   0.411   0.412   0.412   0.412
 2015 135    10   382   116     24     37     58     3    60    88    0.00   0.0   0.0   0.00   0.434   0.421   0.426   0.438   0.438   0.427   0.414   0.410   0.409
 2015 136    11   371   105     24     46     58     3    60    89    0.00   0.0   0.0   0.00   0.414   0.408   0.409   0.423   0.423   0.415   0.406   0.404   0.403
 2015 137    12   362    96     24     51     58     3    60    90    0.00   0.0   0.0   0.00   0.398   0.397   0.396   0.412   0.412   0.407   0.400   0.399   0.398
 2015 138    13   356    91     24     54     58     3    60    90    0.00   0.0   0.0   0.00   0.387   0.390   0.388   0.404   0.404   0.401   0.397   0.395   0.395
 2015 139    14   363    97     24     54     59     4    69    90    0.00   0.0   0.0   0.00   0.433   0.420   0.393   0.404   0.402   0.399   0.395   0.392   0.391
 2015 140    15   360    95     24     54     60     4    69    90    0.00   0.0   0.0   0.00   0.418   0.417   0.395   0.404   0.400   0.398   0.392   0.389   0.388
 2015 141    16   356    91     24     54     60     4    69    90    0.00   0.0   0.0   0.00   0.400   0.403   0.387   0.399   0.397   0.395   0.395   0.395   0.395
 2015 142    17   373   108     24     54     60     5    89    90    0.00   0.0   0.0   0.00   0.432   0.420   0.425   0.438   0.433   0.404   0.395   0.391   0.391
 2015 143    18   365   100     24     59     60     5    89    90    0.00   0.0   0.0   0.00   0.411   0.406   0.408   0.422   0.419   0.399   0.395   0.395   0.395
 2015 144    19   358    93     24     62     60     5    89    90    0.00   0.0   0.0   0.00   0.395   0.395   0.394   0.411   0.409   0.396   0.395   0.395   0.395
 2015 145    20   354    88     24     62     60     5    89    90    0.00   0.0   0.0   0.00   0.382   0.387   0.385   0.403   0.402   0.395   0.395   0.395   0.395
 2015 146    21   350    85     24     62     60     5    89    90    0.00   0.0   0.0   0.00   0.375   0.382   0.379   0.398   0.398   0.395   0.394   0.391   0.391
 2015 147    22   361    95     24     62     60     6   103    90    0.00   0.0   0.0   0.00   0.432   0.419   0.400   0.402   0.397   0.391   0.391   0.388   0.388
 2015 148    23   357    92     24     62     60     6   103    90    0.00   0.0   0.0   0.00   0.410   0.404   0.389   0.397   0.395   0.395   0.395   0.395   0.393
 2015 149    24   363    97     24     62     60     7   112    90    0.00   0.0   0.0   0.00   0.431   0.419   0.412   0.405   0.396   0.392   0.392   0.392   0.390
 2015 150    25   358    92     24     63     60     7   112    90    0.00   0.0   0.0   0.00   0.408   0.403   0.397   0.399   0.395   0.395   0.395   0.395   0.395
 2015 151    26   354    88     24     63     60     7   112    90    0.00   0.0   0.0   0.00   0.390   0.392   0.386   0.395   0.395   0.395   0.395   0.395   0.395
 2015 152    27   358    93     24     63     60     8   120    90    0.00   0.0   0.0   0.00   0.430   0.408   0.388   0.397   0.391   0.392   0.392   0.392   0.392
 2015 153    28   354    89     24     63     60     8   120    90    0.00   0.0   0.0   0.00   0.406   0.395   0.381   0.395   0.395   0.395   0.395   0.393   0.389
 2015 154    29   351    85     24     63     60     8   120    90    0.00   0.0   0.0   0.00   0.388   0.387   0.377   0.395   0.395   0.395   0.394   0.390   0.386
 2015 155    30   347    82     24     63     60     8   120    90    0.00   0.0   0.0   0.00   0.375   0.382   0.376   0.392   0.392   0.393   0.391   0.387   0.383
 2015 156    31   357    91     24     63     60     9   133    90    0.00   0.0   0.0   0.00   0.430   0.419   0.390   0.395   0.389   0.390   0.388   0.385   0.381
 2015 157    32   353    87     24     63     60     9   133    90    0.00   0.0   0.0   0.00   0.405   0.401   0.382   0.395   0.395   0.395   0.394   0.382   0.378
 2015 158    33   349    84     24     63     60     9   133    90    0.00   0.0   0.0   0.00   0.386   0.390   0.378   0.395   0.395   0.396   0.396   0.380   0.376
 2015 159    34   346    80     24     63     60     9   133    90    0.00   0.0   0.0   0.00   0.373   0.383   0.375   0.394   0.393   0.393   0.393   0.378   0.374
 2015 160    35   360    95     24     63     60    10   151    90    0.01   0.0   0.0   0.00   0.429   0.417   0.423   0.406   0.395   0.391   0.391   0.376   0.372
 2015 161    36   358    92     24     63     60    10   151    90    0.01   0.0   0.0   0.00   0.407   0.403   0.406   0.402   0.396   0.397   0.397   0.397   0.373
 2015 162    37   354    89     24     63     60    10   151    90    0.01   0.0   0.0   0.00   0.389   0.391   0.392   0.398   0.396   0.396   0.396   0.396   0.387
 2015 163    38   367   102     24     63     60    11   167    90    0.01   0.0   0.0   0.00   0.428   0.419   0.423   0.424   0.403   0.397   0.394   0.394   0.386
 2015 164    39   361    95     24     66     60    11   167    90    0.02   0.0   0.0   0.00   0.404   0.402   0.404   0.413   0.400   0.396   0.396   0.396   0.396
 2015 165    40   356    90     24     68     60    11   167    90    0.02   0.0   0.0   0.00   0.386   0.391   0.391   0.405   0.398   0.396   0.396   0.396   0.396
 2015 166    41   352    86     24     68     60    11   167    90    0.03   0.0   0.0   0.00   0.373   0.383   0.381   0.400   0.396   0.396   0.396   0.396   0.396
 2015 167    42   375   109     24     68     60    12   193    90    0.03   0.0   0.0   0.00   0.429   0.418   0.423   0.438   0.440   0.409   0.399   0.396   0.395
 2015 168    43   366   101     24     74     60    12   193    90    0.03   0.0   0.0   0.00   0.406   0.403   0.405   0.423   0.425   0.405   0.398   0.397   0.397
 2015 169    44   359    94     24     78     60    12   193    90    0.03   0.0   0.0   0.00   0.389   0.392   0.392   0.412   0.415   0.402   0.397   0.397   0.397
 2015 170    45   376   111     24     78     60    13   213    90    0.03   0.0   0.0   0.00   0.427   0.419   0.423   0.438   0.440   0.418   0.403   0.398   0.396
 2015 171    46   367   101     24     85     60    13   213    90    0.03   0.0   0.0   0.00   0.404   0.403   0.405   0.423   0.426   0.411   0.400   0.397   0.397
 2015 172    47   360    94     24     88     60    13   213    90    0.04   0.0   0.0   0.00   0.387   0.392   0.392   0.412   0.416   0.406   0.400   0.397   0.397
 2015 173    48   355    90     24     90     60    13   213    90    0.04   0.0   0.0   0.00   0.375   0.385   0.383   0.405   0.409   0.403   0.399   0.397   0.397
 2015 174    49   375   110     24     90     60    14   236    90    0.04   0.0   0.0   0.00   0.428   0.418   0.423   0.438   0.435   0.412   0.402   0.398   0.396
 2015 175    50   366   101     24     97     60    14   236    90    0.04   0.0   0.0   0.00   0.405   0.402   0.405   0.423   0.423   0.407   0.400   0.398   0.397
 2015 176    51   359    94     24    100     60    14   236    90    0.04   0.0   0.0   0.00   0.386   0.391   0.391   0.412   0.413   0.403   0.399   0.397   0.397
 2015 177    52   369   104     24    100     60    15   249    90    0.04   0.0   0.0   0.00   0.428   0.419   0.414   0.417   0.414   0.406   0.401   0.398   0.396
 2015 178    53   362    96     24    105     60    15   249    90    0.03   0.0   0.0   0.00   0.404   0.402   0.398   0.408   0.408   0.403   0.400   0.397   0.397
 2015 179    54   356    91     24    107     60    15   249    90    0.03   0.0   0.0   0.00   0.386   0.391   0.387   0.403   0.404   0.401   0.399   0.397   0.397
 2015 180    55   352    87     24    108     60    15   249    90    0.03   0.0   0.0   0.00   0.371   0.383   0.379   0.399   0.400   0.400   0.398   0.397   0.397
 2015 181    56   374   109     24    108     60    16   274    90    0.03   0.0   0.0   0.00   0.428   0.417   0.423   0.438   0.433   0.409   0.401   0.398   0.396
 2015 182    57   365   100     24    114     60    16   274    90    0.03   0.0   0.0   0.00   0.404   0.400   0.404   0.423   0.421   0.405   0.400   0.397   0.397
 2015 183    58   359    93     24    118     60    16   274    90    0.03   0.0   0.0   0.00   0.386   0.390   0.391   0.412   0.412   0.402   0.399   0.397   0.397
 2015 184    59   367   102     24    118     60    17   286    90    0.03   0.0   0.0   0.00   0.427   0.418   0.405   0.414   0.412   0.405   0.400   0.398   0.396
 2015 185    60   360    94     24    122     60    17   286    90    0.03   0.0   0.0   0.00   0.401   0.400   0.391   0.406   0.406   0.402   0.399   0.397   0.397
 2015 186    61   355    90     24    124     60    17   286    90    0.03   0.0   0.0   0.00   0.384   0.390   0.383   0.401   0.403   0.400   0.398   0.397   0.397
 2015 187    62   353    87     24    124     60    17   286    90    0.03   0.0   0.0   0.00   0.374   0.385   0.378   0.398   0.400   0.399   0.398   0.397   0.397
 2015 188    63   352    86     24    124     60    17   286    90    0.03   0.0   0.0   0.00   0.371   0.382   0.376   0.397   0.400   0.399   0.397   0.397   0.397
 2015 189    64   353    87     24    124     61    17   286    90    0.22   0.0   0.0   0.00   0.383   0.384   0.376   0.397   0.399   0.399   0.397   0.397   0.397
 2015 190    65   351    85     24    124     61    17   286    90    0.19   0.0   0.0   0.00   0.372   0.381   0.372   0.395   0.398   0.398   0.396   0.396   0.396
 2015 191    66   360    94     24    124     61    18   299    90    0.16   0.0   0.0   0.00   0.426   0.416   0.384   0.395   0.396   0.397   0.395   0.395   0.395
 2015 192    67   356    90     24    125     61    18   299    90    0.14   0.0   0.0   0.00   0.400   0.398   0.379   0.396   0.397   0.397   0.397   0.397   0.397
 2015 193    68   352    87     24    125     61    18   299    90    0.12   0.0   0.0   0.00   0.380   0.388   0.376   0.396   0.397   0.397   0.397   0.397   0.397
 2015 194    69   372   106     24    125     61    19   322    90    0.11   0.0   0.0   0.00   0.424   0.416   0.423   0.438   0.422   0.404   0.399   0.396   0.396
 2015 195    70   363    98     24    130     61    19   322    90    0.10   0.0   0.0   0.00   0.400   0.399   0.404   0.422   0.413   0.401   0.398   0.397   0.397
 2015 196    71   357    91     24    133     61    19   322    90    0.08   0.0   0.0   0.00   0.382   0.389   0.390   0.411   0.406   0.400   0.397   0.397   0.397
 2015 197    72   353    87     24    134     61    19   322    90    0.07   0.0   0.0   0.00   0.371   0.383   0.380   0.403   0.402   0.398   0.397   0.397   0.397
 2015 198    73   368   103     24    134     61    20   341    90    0.06   0.0   0.0   0.00   0.428   0.417   0.422   0.421   0.407   0.400   0.397   0.396   0.396
 2015 199    74   361    96     24    138     61    20   341    90    0.05   0.0   0.0   0.00   0.404   0.400   0.403   0.411   0.403   0.399   0.397   0.397   0.397
 2015 200    75   356    90     24    140     61    20   341    90    0.04   0.0   0.0   0.00   0.386   0.390   0.390   0.404   0.400   0.398   0.397   0.397   0.397
 2015 201    76   351    86     24    140     61    20   341    90    0.04   0.0   0.0   0.00   0.370   0.382   0.379   0.399   0.398   0.397   0.397   0.397   0.397
 2015 202    77   348    83     24    140     61    20   341    90    0.03   0.0   0.0   0.00   0.362   0.376   0.373   0.395   0.396   0.395   0.395   0.395   0.395
 2015 203    78   346    80     24    140     61    20   341    90    0.03   0.0   0.0   0.00   0.350   0.371   0.369   0.393   0.395   0.395   0.395   0.395   0.395
 2015 204    79   360    94     24    140     61    21   357    90    0.03   0.0   0.0   0.00   0.433   0.419   0.381   0.392   0.393   0.394   0.394   0.394   0.394
 2015 205    80   356    90     24    140     61    21   357    90    0.02   0.0   0.0   0.00   0.403   0.399   0.377   0.396   0.396   0.396   0.396   0.396   0.396
 2015 206    81   352    87     24    140     61    21   357    90    0.02   0.0   0.0   0.00   0.382   0.388   0.376   0.396   0.396   0.397   0.397   0.396   0.395
 2015 207    82   349    83     24    140     61    21   357    90    0.02   0.0   0.0   0.00   0.368   0.380   0.373   0.393   0.394   0.395   0.395   0.394   0.394
 2015 208    83   365   100     24    140     61    22   377    90    0.02   0.0   0.0   0.00   0.429   0.418   0.424   0.412   0.398   0.395   0.393   0.392   0.392
 2015 209    84   361    95     24    143     61    22   377    90    0.02   0.0   0.0   0.00   0.407   0.403   0.406   0.406   0.397   0.397   0.397   0.397   0.397
 2015 210    85   355    89     24    145     61    22   377    90    0.03   0.0   0.0   0.00   0.386   0.390   0.391   0.400   0.396   0.396   0.396   0.396   0.396
 2015 211    86   351    85     24    145     61    22   377    90    0.02   0.0   0.0   0.00   0.371   0.382   0.380   0.397   0.396   0.396   0.396   0.396   0.394
 2015 212    87   348    83     24    145     61    22   377    90    0.02   0.0   0.0   0.00   0.357   0.377   0.375   0.395   0.395   0.396   0.396   0.396   0.394
 2015 213    88   346    80     24    145     61    22   377    90    0.01   0.0   0.0   0.00   0.347   0.372   0.370   0.393   0.394   0.396   0.396   0.396   0.394
 2015 214    89   344    78     24    145     61    22   377    90    0.04   0.0   0.0   0.00   0.338   0.367   0.367   0.391   0.394   0.396   0.396   0.396   0.394
 2015 215    90   342    77     24    145     61    22   377    90    0.05   0.0   0.0   0.00   0.330   0.364   0.363   0.389   0.393   0.396   0.396   0.395   0.394
 2015 216    91   340    75     24    145     61    22   377    90    0.05   0.0   0.0   0.00   0.323   0.360   0.361   0.387   0.392   0.396   0.396   0.395   0.394
 2015 217    92   339    73     24    145     61    22   377    90    0.05   0.0   0.0   0.00   0.316   0.358   0.358   0.386   0.392   0.396   0.396   0.395   0.394
 2015 218    93   338    72     24    145     61    22   377    90    0.04   0.0   0.0   0.00   0.310   0.355   0.356   0.384   0.391   0.396   0.396   0.395   0.394
 2015 219    94   336    71     24    145     61    22   377    90    0.04   0.0   0.0   0.00   0.304   0.352   0.354   0.383   0.391   0.396   0.396   0.395   0.394
 2015 220    95   335    70     24    145     61    22   377    90    0.03   0.0   0.0   0.00   0.298   0.350   0.352   0.381   0.390   0.396   0.396   0.395   0.394

*DSSAT Cropping System Model Ver. 4.7.5.007 -  MAR 01, 2026 21:19:28
!                                                                                                 Soil water content (mm3/mm3) by soil depth (cm):
!                                                                                                0-10   10-20   20-30   30-40   40-50   50-60   60-70   70-80   80-90
@YEAR DOY   DAS  SWTD  SWXD   ROFC   DRNC   PREC  IR#C  IRRC  DTWT    MWTD  TDFD  TDFC   ROFD    SW1D    SW2D    SW3D    SW4D    SW5D    SW6D    SW7D    SW8D    SW9D
 2015 147     0   353    88      0      0      0     0     0     0    0.00   0.0   0.0   0.00   0.377   0.387   0.380   0.398   0.398   0.398   0.398   0.398   0.398
 2015 148     1   370   105      0      0      0     1    20    45    0.00   0.0   0.0   0.00   0.434   0.421   0.425   0.432   0.406   0.398   0.396   0.395   0.395
 2015 149     2   362    97      0      4      0     1    20    90    0.00   0.0   0.0   0.00   0.413   0.407   0.408   0.418   0.400   0.395   0.395   0.395   0.395
 2015 150     3   358    92      0      6      0     1    20    90    0.00   0.0   0.0   0.00   0.399   0.398   0.396   0.408   0.397   0.395   0.395   0.395   0.395
 2015 151     4   354    89      0      7      0     1    20    90    0.00   0.0   0.0   0.00   0.389   0.391   0.388   0.402   0.395   0.395   0.395   0.395   0.395
 2015 152     5   351    86      0      7      0     1    20    90    0.00   0.0   0.0   0.00   0.382   0.386   0.382   0.397   0.395   0.395   0.393   0.391   0.391
 2015 153     6   348    83      0      7      0     1    20    90    0.00   0.0   0.0   0.00   0.377   0.383   0.379   0.395   0.392   0.391   0.390   0.388   0.388
 2015 154     7   347    82      0      7      0     1    20    90    0.00   0.0   0.0   0.00   0.369   0.382   0.378   0.394   0.391   0.391   0.389   0.388   0.388
 2015 155     8   364    99      0      7      0     2    40    90    0.00   0.0   0.0   0.00   0.434   0.420   0.425   0.419   0.398   0.389   0.386   0.385   0.385
 2015 156     9   361    95      0      7      0     2    40    90    0.00   0.0   0.0   0.00   0.412   0.406   0.408   0.409   0.395   0.395   0.395   0.395   0.394
 2015 157    10   357    91      0      8      0     2    40    90    0.00   0.0   0.0   0.00   0.397   0.396   0.396   0.403   0.395   0.395   0.395   0.395   0.395
 2015 158    11   353    88      0      8      0     2    40    90    0.00   0.0   0.0   0.00   0.387   0.390   0.387   0.398   0.395   0.395   0.395   0.395   0.393
 2015 159    12   350    85      0      8      0     2    40    90    0.00   0.0   0.0   0.00   0.379   0.386   0.381   0.395   0.395   0.393   0.391   0.391   0.389
 2015 160    13   367   101      0      8      0     3    60    90    0.00   0.0   0.0   0.00   0.433   0.420   0.425   0.431   0.403   0.393   0.388   0.388   0.386
 2015 161    14   362    97      0      9      0     3    60    90    0.00   0.0   0.0   0.00   0.412   0.406   0.408   0.418   0.399   0.395   0.395   0.395   0.395
 2015 162    15   357    92      0     11      0     3    60    90    0.00   0.0   0.0   0.00   0.397   0.396   0.395   0.408   0.395   0.395   0.395   0.395   0.395
 2015 163    16   354    88      0     11      0     3    60    90    0.00   0.0   0.0   0.00   0.386   0.389   0.387   0.402   0.395   0.395   0.395   0.395   0.395
 2015 164    17   350    85      0     11      0     3    60    90    0.00   0.0   0.0   0.00   0.377   0.385   0.380   0.397   0.395   0.394   0.391   0.391   0.391
 2015 165    18   367   101      0     11      0     4    80    90    0.00   0.0   0.0   0.00   0.432   0.419   0.425   0.430   0.403   0.394   0.388   0.388   0.388
 2015 166    19   361    96      0     13      0     4    80    90    0.00   0.0   0.0   0.00   0.410   0.404   0.406   0.416   0.398   0.395   0.395   0.395   0.395
 2015 167    20   356    91      0     14      0     4    80    90    0.00   0.0   0.0   0.00   0.395   0.395   0.394   0.407   0.395   0.395   0.395   0.395   0.395
 2015 168    21   353    88      0     14      0     4    80    90    0.00   0.0   0.0   0.00   0.385   0.389   0.386   0.401   0.395   0.395   0.395   0.395   0.393
 2015 169    22   350    85      0     14      0     4    80    90    0.00   0.0   0.0   0.00   0.377   0.384   0.380   0.397   0.395   0.394   0.392   0.392   0.390
 2015 170    23   347    81      0     14      0     4    80    90    0.00   0.0   0.0   0.00   0.371   0.380   0.376   0.393   0.392   0.391   0.389   0.389   0.387
 2015 171    24   345    80      0     14      0     4    80    90    0.00   0.0   0.0   0.00   0.362   0.377   0.374   0.393   0.391   0.391   0.389   0.389   0.387
 2015 172    25   344    78      0     14      0     4    80    90    0.00   0.0   0.0   0.00   0.353   0.375   0.373   0.392   0.391   0.391   0.389   0.389   0.387
 2015 173    26   357    91      0     14      0     5    96    90    0.00   0.0   0.0   0.00   0.433   0.420   0.389   0.395   0.388   0.388   0.386   0.386   0.384
 2015 174    27   353    88      0     14      0     5    96    90    0.00   0.0   0.0   0.00   0.410   0.404   0.383   0.395   0.395   0.395   0.389   0.383   0.381
 2015 175    28   351    85      0     14      0     5    96    90    0.00   0.0   0.0   0.00   0.394   0.394   0.379   0.395   0.396   0.396   0.392   0.381   0.378
 2015 176    29   347    81      0     14      0     5    96    90    0.00   0.0   0.0   0.00   0.381   0.387   0.376   0.395   0.395   0.394   0.389   0.378   0.376
 2015 177    30   366   100      0     14      0     6   118    90    0.00   0.0   0.0   0.00   0.431   0.419   0.425   0.438   0.411   0.398   0.387   0.375   0.373
 2015 178    31   363    97      0     14      0     6   118    90    0.01   0.0   0.0   0.00   0.409   0.404   0.407   0.423   0.405   0.396   0.396   0.396   0.393
 2015 179    32   358    92      0     16      0     6   118    90    0.01   0.0   0.0   0.00   0.393   0.394   0.394   0.412   0.400   0.396   0.396   0.396   0.396
 2015 180    33   353    88      0     17      0     6   118    90    0.01   0.0   0.0   0.00   0.380   0.387   0.385   0.404   0.397   0.395   0.395   0.395   0.395
 2015 181    34   369   104      0     17      0     7   137    90    0.01   0.0   0.0   0.00   0.430   0.418   0.424   0.434   0.407   0.398   0.393   0.393   0.393
 2015 182    35   362    97      0     21      0     7   137    90    0.01   0.0   0.0   0.00   0.407   0.403   0.405   0.420   0.402   0.396   0.396   0.396   0.396
 2015 183    36   357    91      0     23      0     7   137    90    0.01   0.0   0.0   0.00   0.390   0.392   0.392   0.410   0.399   0.396   0.396   0.396   0.396
 2015 184    37   364    99      0     23      0     8   148    90    0.01   0.0   0.0   0.00   0.428   0.419   0.404   0.412   0.401   0.396   0.394   0.394   0.394
 2015 185    38   358    93      0     25      0     8   148    90    0.01   0.0   0.0   0.00   0.404   0.402   0.391   0.405   0.398   0.396   0.396   0.396   0.396
 2015 186    39   355    89      0     26      0     8   148    90    0.01   0.0   0.0   0.00   0.388   0.392   0.384   0.400   0.396   0.396   0.396   0.396   0.396
 2015 187    40   352    87      0     26      0     8   148    90    0.02   0.0   0.0   0.00   0.377   0.386   0.379   0.398   0.397   0.397   0.397   0.396   0.395
 2015 188    41   351    86      0     26      0     8   148    90    0.02   0.0   0.0   0.00   0.374   0.384   0.377   0.397   0.396   0.396   0.396   0.396   0.395
 2015 189    42   353    87      0     26      2     8   148    90    0.05   0.0   0.0   0.00   0.387   0.387   0.377   0.397   0.396   0.396   0.396   0.395   0.394
 2015 190    43   350    85      0     26      2     8   148    90    0.06   0.0   0.0   0.00   0.375   0.383   0.377   0.395   0.394   0.395   0.395   0.394   0.393
 2015 191    44   370   104      0     26      2     9   171    90    0.06   0.0   0.0   0.00   0.427   0.417   0.423   0.438   0.412   0.399   0.394   0.393   0.392
 2015 192    45   362    97      0     30      2     9   171    90    0.05   0.0   0.0   0.00   0.403   0.401   0.404   0.422   0.406   0.398   0.397   0.397   0.397
 2015 193    46   357    91      0     32      2     9   171    90    0.06   0.0   0.0   0.00   0.386   0.391   0.391   0.411   0.402   0.397   0.397   0.397   0.397
 2015 194    47   375   110      0     32      2    10   193    90    0.05   0.0   0.0   0.00   0.426   0.417   0.422   0.437   0.439   0.415   0.401   0.397   0.395
 2015 195    48   365   100      0     38      2    10   193    90    0.05   0.0   0.0   0.00   0.402   0.400   0.403   0.422   0.425   0.409   0.399   0.397   0.397
 2015 196    49   358    93      0     42      2    10   193    90    0.05   0.0   0.0   0.00   0.383   0.390   0.389   0.411   0.414   0.404   0.398   0.397   0.397
 2015 197    50   354    88      0     43      2    10   193    90    0.05   0.0   0.0   0.00   0.372   0.384   0.380   0.403   0.408   0.401   0.397   0.397   0.397
 2015 198    51   368   103      0     43      2    11   211    90    0.05   0.0   0.0   0.00   0.428   0.416   0.422   0.415   0.409   0.403   0.398   0.396   0.396
 2015 199    52   361    95      0     47      2    11   211    90    0.05   0.0   0.0   0.00   0.403   0.400   0.403   0.407   0.404   0.400   0.397   0.397   0.397
 2015 200    53   356    90      0     49      2    11   211    90    0.05   0.0   0.0   0.00   0.385   0.390   0.390   0.402   0.401   0.399   0.397   0.397   0.397
 2015 201    54   351    86      0     50      2    11   211    90    0.05   0.0   0.0   0.00   0.369   0.382   0.379   0.397   0.399   0.398   0.397   0.397   0.397
 2015 202    55   348    83      0     50      2    11   211    90    0.05   0.0   0.0   0.00   0.361   0.375   0.372   0.394   0.397   0.397   0.396   0.396   0.396
 2015 203    56   345    80      0     50      2    11   211    90    0.05   0.0   0.0   0.00   0.346   0.368   0.366   0.391   0.396   0.397   0.396   0.396   0.396
 2015 204    57   365   100      0     50      2    12   234    90    0.04   0.0   0.0   0.00   0.433   0.418   0.422   0.404   0.398   0.396   0.395   0.395   0.395
 2015 205    58   359    93      0     52      2    12   234    90    0.04   0.0   0.0   0.00   0.404   0.399   0.402   0.399   0.397   0.397   0.397   0.397   0.397
 2015 206    59   354    89      0     54      2    12   234    90    0.04   0.0   0.0   0.00   0.384   0.388   0.388   0.397   0.397   0.397   0.397   0.397   0.397
 2015 207    60   351    85      0     54      2    12   234    90    0.04   0.0   0.0   0.00   0.370   0.382   0.378   0.395   0.396   0.397   0.397   0.396   0.396
 2015 208    61   347    81      0     54      2    12   234    90    0.04   0.0   0.0   0.00   0.351   0.372   0.370   0.392   0.395   0.397   0.397   0.396   0.396
 2015 209    62   368   103      0     54      2    13   258    90    0.05   0.0   0.0   0.00   0.433   0.419   0.424   0.421   0.402   0.399   0.396   0.395   0.395
 2015 210    63   360    95      0     58      2    13   258    90    0.05   0.0   0.0   0.00   0.405   0.400   0.403   0.410   0.399   0.397   0.397   0.397   0.397
 2015 211    64   355    89      0     59      2    13   258    90    0.05   0.0   0.0   0.00   0.384   0.388   0.388   0.403   0.397   0.396   0.396   0.396   0.396
 2015 212    65   350    85      0     59      2    13   258    90    0.05   0.0   0.0   0.00   0.368   0.381   0.377   0.398   0.396   0.396   0.396   0.396   0.396
 2015 213    66   367   101      0     59      2    14   278    90    0.04   0.0   0.0   0.00   0.428   0.416   0.421   0.418   0.402   0.397   0.395   0.395   0.394
 2015 214    67   359    94      0     63      2    14   278    90    0.04   0.0   0.0   0.00   0.401   0.398   0.401   0.408   0.399   0.396   0.396   0.396   0.396
 2015 215    68   354    89      0     64      2    14   278    90    0.04   0.0   0.0   0.00   0.382   0.388   0.388   0.402   0.397   0.397   0.397   0.397   0.397
 2015 216    69   370   105      0     64      2    15   298    90    0.04   0.0   0.0   0.00   0.424   0.416   0.421   0.437   0.414   0.401   0.397   0.395   0.395
 2015 217    70   361    96      0     68      2    15   298    90    0.03   0.0   0.0   0.00   0.399   0.398   0.401   0.421   0.407   0.399   0.396   0.396   0.396
 2015 218    71   355    89      0     70      2    15   298    90    0.03   0.0   0.0   0.00   0.379   0.387   0.386   0.409   0.402   0.397   0.396   0.396   0.396
 2015 219    72   350    85      0     70      2    15   298    90    0.03   0.0   0.0   0.00   0.367   0.379   0.376   0.400   0.398   0.396   0.396   0.396   0.396
 2015 220    73   367   101      0     70      2    16   318    90    0.03   0.0   0.0   0.00   0.428   0.417   0.422   0.417   0.403   0.397   0.394   0.394   0.394
 2015 221    74   358    92      0     74      2    16   318    90    0.02   0.0   0.0   0.00   0.398   0.395   0.400   0.406   0.398   0.396   0.396   0.396   0.396
 2015 222    75   352    86      0     74      2    16   318    90    0.02   0.0   0.0   0.00   0.374   0.384   0.382   0.399   0.395   0.396   0.396   0.396   0.396
 2015 223    76   369   103      0     74      2    17   338    90    0.02   0.0   0.0   0.00   0.429   0.418   0.423   0.430   0.405   0.398   0.394   0.394   0.394
 2015 224    77   360    95      0     78      2    17   338    90    0.02   0.0   0.0   0.00   0.402   0.399   0.402   0.415   0.400   0.396   0.396   0.396   0.396
 2015 225    78   354    89      0     80      2    17   338    90    0.02   0.0   0.0   0.00   0.382   0.388   0.387   0.406   0.398   0.396   0.396   0.396   0.396
 2015 226    79   351    85      0     80      2    17   338    90    0.02   0.0   0.0   0.00   0.370   0.381   0.378   0.399   0.396   0.396   0.396   0.396   0.394
 2015 227    80   367   101      0     80      2    18   358    90    0.02   0.0   0.0   0.00   0.428   0.416   0.422   0.421   0.402   0.397   0.394   0.394   0.392
 2015 228    81   360    94      0     83      2    18   358    90    0.01   0.0   0.0   0.00   0.403   0.399   0.403   0.410   0.399   0.396   0.396   0.396   0.396
 2015 229    82   354    89      0     84      2    18   358    90    0.01   0.0   0.0   0.00   0.383   0.388   0.388   0.403   0.396   0.396   0.396   0.396   0.396
 2015 230    83   350    84      0     84      2    18   358    90    0.01   0.0   0.0   0.00   0.368   0.380   0.377   0.397   0.395   0.396   0.396   0.394   0.394
 2015 231    84   347    81      0     84      2    18   358    90    0.01   0.0   0.0   0.00   0.354   0.375   0.372   0.395   0.395   0.396   0.396   0.394   0.394
 2015 232    85   364    98      0     84      2    19   378    90    0.01   0.0   0.0   0.00   0.432   0.418   0.415   0.404   0.396   0.394   0.393   0.392   0.392
 2015 233    86   357    92      0     86      2    19   378    90    0.01   0.0   0.0   0.00   0.403   0.398   0.397   0.398   0.395   0.396   0.396   0.396   0.396
 2015 234    87   352    87      0     86      2    19   378    90    0.01   0.0   0.0   0.00   0.383   0.387   0.384   0.395   0.395   0.395   0.395   0.395   0.395
 2015 235    88   348    82      0     86      2    19   378    90    0.03   0.0   0.0   0.00   0.369   0.380   0.375   0.393   0.391   0.392   0.392   0.392   0.392
 2015 236    89   346    80      0     86      2    19   378    90    0.05   0.0   0.0   0.00   0.357   0.375   0.372   0.392   0.391   0.392   0.392   0.392   0.392
 2015 237    90   362    96      0     86      2    20   398    90    0.05   0.0   0.0   0.00   0.432   0.418   0.418   0.402   0.391   0.389   0.389   0.389   0.389
 2015 238    91   359    93      0     86      2    20   398    90    0.05   0.0   0.0   0.00   0.410   0.404   0.403   0.398   0.395   0.395   0.395   0.395   0.391
 2015 239    92   358    93      0     86      5    20   398    90    0.55   0.0   0.0   0.00   0.416   0.406   0.399   0.402   0.395   0.393   0.393   0.393   0.389
 2015 240    93   377   112      0     86      5    21   418    90    0.38   0.0   0.0   0.00   0.434   0.422   0.428   0.440   0.441   0.425   0.402   0.394   0.388
 2015 241    94   368   102      0     92      5    21   418    90    0.26   0.0   0.0   0.00   0.412   0.407   0.409   0.424   0.424   0.413   0.397   0.395   0.395

*DSSAT Cropping System Model Ver. 4.7.5.007 -  MAR 01, 2026 21:19:28
!                                                                                                 Soil water content (mm3/mm3) by soil depth (cm):
!                                                                                                0-10   10-20   20-30   30-40   40-50   50-60   60-70   70-80   80-90
@YEAR DOY   DAS  SWTD  SWXD   ROFC   DRNC   PREC  IR#C  IRRC  DTWT    MWTD  TDFD  TDFC   ROFD    SW1D    SW2D    SW3D    SW4D    SW5D    SW6D    SW7D    SW8D    SW9D
 2015 160     0   353    88      0      0      0     0     0     0    0.00   0.0   0.0   0.00   0.377   0.387   0.380   0.398   0.398   0.398   0.398   0.398   0.398
 2015 161     1   370   105      0      0      0     1    20    45    0.00   0.0   0.0   0.00   0.434   0.421   0.426   0.432   0.406   0.398   0.396   0.395   0.395
 2015 162     2   363    97      0      5      0     1    20    90    0.00   0.0   0.0   0.00   0.414   0.407   0.409   0.418   0.400   0.395   0.395   0.395   0.395
 2015 163     3   358    92      0      6      0     1    20    90    0.00   0.0   0.0   0.00   0.399   0.398   0.397   0.409   0.397   0.395   0.395   0.395   0.395
 2015 164     4   354    89      0      7      0     1    20    90    0.00   0.0   0.0   0.00   0.389   0.391   0.388   0.402   0.395   0.395   0.395   0.395   0.395
 2015 165     5   371   106      0      7      0     2    40    90    0.00   0.0   0.0   0.00   0.434   0.421   0.425   0.438   0.419   0.400   0.393   0.391   0.391
 2015 166     6   364    98      0     11      0     2    40    90    0.00   0.0   0.0   0.00   0.413   0.407   0.408   0.422   0.409   0.396   0.395   0.395   0.395
 2015 167     7   358    93      0     13      0     2    40    90    0.00   0.0   0.0   0.00   0.398   0.397   0.396   0.411   0.402   0.395   0.395   0.395   0.395
 2015 168     8   355    89      0     14      0     2    40    90    0.00   0.0   0.0   0.00   0.388   0.391   0.388   0.404   0.398   0.395   0.395   0.395   0.395
 2015 169     9   352    86      0     14      0     2    40    90    0.00   0.0   0.0   0.00   0.381   0.386   0.382   0.399   0.395   0.395   0.395   0.393   0.391
 2015 170    10   368   103      0     14      0     3    60    90    0.00   0.0   0.0   0.00   0.433   0.420   0.425   0.435   0.405   0.396   0.391   0.390   0.388
 2015 171    11   362    97      0     16      0     3    60    90    0.00   0.0   0.0   0.00   0.412   0.406   0.408   0.421   0.399   0.395   0.395   0.395   0.395
 2015 172    12   357    92      0     18      0     3    60    90    0.00   0.0   0.0   0.00   0.397   0.396   0.396   0.410   0.396   0.395   0.395   0.395   0.395
 2015 173    13   354    88      0     18      0     3    60    90    0.00   0.0   0.0   0.00   0.387   0.390   0.387   0.403   0.395   0.395   0.395   0.395   0.395
 2015 174    14   351    85      0     18      0     3    60    90    0.00   0.0   0.0   0.00   0.379   0.385   0.381   0.398   0.395   0.394   0.391   0.391   0.391
 2015 175    15   368   102      0     18      0     4    80    90    0.00   0.0   0.0   0.00   0.434   0.420   0.426   0.433   0.404   0.395   0.388   0.388   0.388
 2015 176    16   362    97      0     21      0     4    80    90    0.00   0.0   0.0   0.00   0.411   0.405   0.407   0.419   0.399   0.395   0.395   0.395   0.395
 2015 177    17   367   101      0     21      0     5    88    90    0.00   0.0   0.0   0.00   0.426   0.419   0.420   0.423   0.405   0.397   0.393   0.393   0.393
 2015 178    18   361    95      0     24      0     5    88    90    0.00   0.0   0.0   0.00   0.407   0.405   0.404   0.412   0.399   0.395   0.395   0.395   0.395
 2015 179    19   356    90      0     25      0     5    88    90    0.00   0.0   0.0   0.00   0.393   0.395   0.393   0.404   0.396   0.395   0.395   0.395   0.395
 2015 180    20   352    87      0     25      0     5    88    90    0.00   0.0   0.0   0.00   0.382   0.388   0.384   0.399   0.395   0.395   0.395   0.395   0.392
 2015 181    21   361    95      0     25      0     6   100    90    0.00   0.0   0.0   0.00   0.432   0.419   0.398   0.402   0.394   0.391   0.391   0.391   0.389
 2015 182    22   357    92      0     25      0     6   100    90    0.00   0.0   0.0   0.00   0.410   0.404   0.388   0.397   0.395   0.395   0.395   0.395   0.394
 2015 183    23   369   103      0     25      0     7   115    90    0.00   0.0   0.0   0.00   0.432   0.419   0.425   0.437   0.405   0.396   0.391   0.391   0.391
 2015 184    24   362    97      0     28      0     7   115    90    0.00   0.0   0.0   0.00   0.409   0.404   0.407   0.421   0.400   0.395   0.395   0.395   0.395
 2015 185    25   357    91      0     30      0     7   115    90    0.00   0.0   0.0   0.00   0.393   0.394   0.394   0.410   0.396   0.395   0.395   0.395   0.395
 2015 186    26   354    88      0     30      0     7   115    90    0.00   0.0   0.0   0.00   0.383   0.388   0.385   0.404   0.395   0.395   0.395   0.395   0.395
 2015 187    27   366   101      0     30      0     8   130    90    0.00   0.0   0.0   0.00   0.433   0.421   0.421   0.413   0.399   0.395   0.393   0.393   0.393
 2015 188    28   362    97      0     32      0     8   130    90    0.00   0.0   0.0   0.00   0.414   0.408   0.407   0.407   0.398   0.397   0.397   0.397   0.397
 2015 189    29   364    98      0     32      2     8   130    90    0.00   0.0   0.0   0.00   0.416   0.412   0.406   0.412   0.402   0.399   0.397   0.397   0.397
 2015 190    30   358    93      0     35      2     8   130    90    0.00   0.0   0.0   0.00   0.399   0.400   0.394   0.405   0.399   0.397   0.396   0.396   0.396
 2015 191    31   374   109      0     35      2     9   150    90    0.00   0.0   0.0   0.00   0.428   0.418   0.423   0.438   0.438   0.411   0.399   0.395   0.393
 2015 192    32   365   100      0     41      2     9   150    90    0.00   0.0   0.0   0.00   0.405   0.402   0.405   0.422   0.423   0.405   0.396   0.396   0.396
 2015 193    33   359    93      0     44      2     9   150    90    0.01   0.0   0.0   0.00   0.389   0.392   0.392   0.411   0.413   0.401   0.396   0.396   0.396
 2015 194    34   363    97      0     44      2    10   158    90    0.01   0.0   0.0   0.00   0.427   0.407   0.390   0.408   0.410   0.402   0.396   0.393   0.393
 2015 195    35   357    91      0     46      2    10   158    90    0.01   0.0   0.0   0.00   0.403   0.393   0.382   0.402   0.404   0.398   0.396   0.396   0.396
 2015 196    36   353    87      0     47      2    10   158    90    0.01   0.0   0.0   0.00   0.383   0.385   0.378   0.397   0.399   0.396   0.396   0.396   0.396
 2015 197    37   357    92      0     47      2    11   166    90    0.01   0.0   0.0   0.00   0.428   0.398   0.379   0.396   0.397   0.394   0.394   0.394   0.394
 2015 198    38   354    88      0     47      2    11   166    90    0.02   0.0   0.0   0.00   0.400   0.387   0.376   0.395   0.396   0.396   0.396   0.396   0.394
 2015 199    39   350    85      0     47      2    11   166    90    0.02   0.0   0.0   0.00   0.381   0.383   0.376   0.395   0.394   0.394   0.394   0.394   0.392
 2015 200    40   347    82      0     47      2    11   166    90    0.02   0.0   0.0   0.00   0.369   0.378   0.372   0.392   0.392   0.392   0.392   0.392   0.390
 2015 201    41   351    86      0     47      2    12   174    90    0.02   0.0   0.0   0.00   0.421   0.388   0.369   0.388   0.389   0.390   0.390   0.390   0.388
 2015 202    42   348    83      0     47      2    12   174    90    0.03   0.0   0.0   0.00   0.395   0.383   0.377   0.389   0.387   0.389   0.389   0.389   0.387
 2015 203    43   344    79      0     47      2    12   174    90    0.03   0.0   0.0   0.00   0.372   0.381   0.373   0.386   0.385   0.387   0.387   0.387   0.385
 2015 204    44   358    92      0     47      2    13   191    90    0.03   0.0   0.0   0.00   0.427   0.417   0.413   0.398   0.384   0.385   0.385   0.385   0.383
 2015 205    45   354    88      0     47      2    13   191    90    0.03   0.0   0.0   0.00   0.401   0.398   0.395   0.395   0.396   0.396   0.391   0.384   0.382
 2015 206    46   350    85      0     47      2    13   191    90    0.04   0.0   0.0   0.00   0.382   0.388   0.384   0.396   0.396   0.397   0.397   0.384   0.380
 2015 207    47   347    81      0     47      2    13   191    90    0.04   0.0   0.0   0.00   0.369   0.381   0.376   0.395   0.395   0.395   0.395   0.382   0.379
 2015 208    48   355    89      0     47      2    14   203    90    0.04   0.0   0.0   0.00   0.426   0.410   0.379   0.394   0.393   0.394   0.394   0.381   0.377
 2015 209    49   352    87      0     47      2    14   203    90    0.04   0.0   0.0   0.00   0.403   0.396   0.377   0.397   0.397   0.397   0.397   0.382   0.377
 2015 210    50   348    83      0     47      2    14   203    90    0.04   0.0   0.0   0.00   0.379   0.385   0.375   0.395   0.396   0.397   0.397   0.385   0.375
 2015 211    51   344    79      0     47      2    14   203    90    0.04   0.0   0.0   0.00   0.364   0.376   0.369   0.392   0.394   0.395   0.395   0.384   0.374
 2015 212    52   360    95      0     47      2    15   223    90    0.04   0.0   0.0   0.00   0.425   0.415   0.420   0.403   0.396   0.394   0.394   0.382   0.373
 2015 213    53   356    91      0     47      2    15   223    90    0.04   0.0   0.0   0.00   0.399   0.397   0.400   0.399   0.397   0.397   0.397   0.397   0.382
 2015 214    54   352    87      0     47      2    15   223    90    0.04   0.0   0.0   0.00   0.378   0.386   0.385   0.396   0.396   0.397   0.397   0.397   0.392
 2015 215    55   349    83      0     47      2    15   223    90    0.04   0.0   0.0   0.00   0.366   0.378   0.376   0.395   0.395   0.396   0.396   0.396   0.391
 2015 216    56   364    99      0     47      2    16   243    90    0.03   0.0   0.0   0.00   0.425   0.415   0.420   0.412   0.399   0.396   0.394   0.394   0.389
 2015 217    57   358    93      0     49      2    16   243    90    0.03   0.0   0.0   0.00   0.398   0.396   0.400   0.404   0.397   0.397   0.397   0.397   0.397
 2015 218    58   353    87      0     50      2    16   243    90    0.04   0.0   0.0   0.00   0.376   0.385   0.384   0.399   0.396   0.397   0.397   0.397   0.397
 2015 219    59   348    83      0     50      2    16   243    90    0.04   0.0   0.0   0.00   0.363   0.376   0.374   0.395   0.395   0.395   0.395   0.395   0.395
 2015 220    60   364    99      0     50      2    17   263    90    0.04   0.0   0.0   0.00   0.426   0.415   0.420   0.406   0.398   0.394   0.394   0.394   0.394
 2015 221    61   357    91      0     52      2    17   263    90    0.04   0.0   0.0   0.00   0.395   0.393   0.397   0.399   0.396   0.396   0.396   0.396   0.396
 2015 222    62   351    85      0     52      2    17   263    90    0.03   0.0   0.0   0.00   0.370   0.382   0.380   0.396   0.396   0.396   0.396   0.396   0.396
 2015 223    63   368   102      0     52      2    18   283    90    0.03   0.0   0.0   0.00   0.429   0.418   0.423   0.421   0.403   0.398   0.395   0.395   0.395
 2015 224    64   360    94      0     56      2    18   283    90    0.03   0.0   0.0   0.00   0.401   0.398   0.402   0.410   0.399   0.397   0.397   0.397   0.397
 2015 225    65   354    88      0     58      2    18   283    90    0.03   0.0   0.0   0.00   0.379   0.386   0.386   0.402   0.397   0.396   0.396   0.396   0.396
 2015 226    66   350    84      0     58      2    18   283    90    0.03   0.0   0.0   0.00   0.368   0.379   0.377   0.397   0.396   0.397   0.396   0.395   0.395
 2015 227    67   365   100      0     58      2    19   303    90    0.03   0.0   0.0   0.00   0.425   0.415   0.420   0.415   0.401   0.397   0.395   0.394   0.394
 2015 228    68   359    94      0     60      2    19   303    90    0.03   0.0   0.0   0.00   0.400   0.397   0.401   0.407   0.399   0.397   0.397   0.397   0.397
 2015 229    69   354    88      0     62      2    19   303    90    0.03   0.0   0.0   0.00   0.379   0.387   0.386   0.401   0.397   0.396   0.396   0.396   0.396
 2015 230    70   369   104      0     62      2    20   323    90    0.03   0.0   0.0   0.00   0.424   0.416   0.420   0.437   0.409   0.399   0.396   0.395   0.395
 2015 231    71   360    95      0     66      2    20   323    90    0.03   0.0   0.0   0.00   0.397   0.397   0.400   0.420   0.404   0.398   0.396   0.396   0.396
 2015 232    72   355    89      0     67      2    20   323    90    0.03   0.0   0.0   0.00   0.379   0.387   0.386   0.409   0.400   0.396   0.396   0.396   0.396
 2015 233    73   350    84      0     67      2    20   323    90    0.03   0.0   0.0   0.00   0.366   0.378   0.375   0.400   0.397   0.396   0.396   0.396   0.395
 2015 234    74   365   100      0     67      2    21   343    90    0.03   0.0   0.0   0.00   0.426   0.415   0.420   0.414   0.401   0.397   0.394   0.394   0.393
 2015 235    75   358    93      0     70      2    21   343    90    0.03   0.0   0.0   0.00   0.398   0.396   0.400   0.405   0.398   0.396   0.396   0.396   0.396
 2015 236    76   353    87      0     71      2    21   343    90    0.02   0.0   0.0   0.00   0.378   0.385   0.384   0.399   0.396   0.396   0.396   0.396   0.396
 2015 237    77   369   103      0     71      2    22   363    90    0.02   0.0   0.0   0.00   0.426   0.416   0.421   0.435   0.406   0.399   0.394   0.394   0.394
 2015 238    78   361    96      0     75      2    22   363    90    0.02   0.0   0.0   0.00   0.402   0.400   0.403   0.420   0.402   0.397   0.397   0.397   0.397
 2015 239    79   361    95      0     75      5    22   363    90    0.33   0.0   0.0   0.00   0.406   0.399   0.395   0.416   0.405   0.399   0.396   0.395   0.395
 2015 240    80   379   114      0     75      5    23   383    90    0.26   0.0   0.0   0.00   0.433   0.421   0.426   0.440   0.441   0.431   0.406   0.398   0.394
 2015 241    81   367   102      0     82      5    23   383    90    0.21   0.0   0.0   0.00   0.405   0.401   0.405   0.422   0.425   0.419   0.402   0.396   0.396
 2015 242    82   358    93      0     86      5    23   383    90    0.17   0.0   0.0   0.00   0.383   0.388   0.388   0.410   0.413   0.410   0.398   0.396   0.396
 2015 243    83   373   108      0     86      5    24   403    90    0.13   0.0   0.0   0.00   0.423   0.415   0.419   0.436   0.431   0.415   0.402   0.396   0.394
 2015 244    84   362    97      0     92      5    24   403    90    0.11   0.0   0.0   0.00   0.396   0.396   0.399   0.419   0.417   0.408   0.398   0.396   0.396
 2015 245    85   355    89      0     94      5    24   403    90    0.08   0.0   0.0   0.00   0.375   0.385   0.383   0.407   0.408   0.402   0.396   0.396   0.396
 2015 246    86   349    84      0     94      5    24   403    90    0.07   0.0   0.0   0.00   0.363   0.376   0.374   0.398   0.401   0.398   0.395   0.395   0.395
 2015 247    87   365    99      0     94      5    25   423    90    0.08   0.0   0.0   0.00   0.428   0.416   0.421   0.407   0.401   0.398   0.392   0.392   0.392
 2015 248    88   358    93      0     96      5    25   423    90    0.09   0.0   0.0   0.00   0.404   0.399   0.402   0.401   0.398   0.395   0.395   0.395   0.395
 2015 249    89   354    89      0     97      5    25   423    90    0.08   0.0   0.0   0.00   0.388   0.390   0.390   0.397   0.395   0.395   0.395   0.395   0.395
 2015 250    90   371   105      0     97      5    26   443    90    0.07   0.0   0.0   0.00   0.431   0.420   0.424   0.438   0.417   0.400   0.395   0.393   0.393
 2015 251    91   364    98      0    101      5    26   443    90    0.06   0.0   0.0   0.00   0.410   0.406   0.407   0.423   0.408   0.397   0.396   0.396   0.396
 2015 252    92   378   113      0    101     21    26   443    90    0.60   0.0   0.0   0.06   0.436   0.423   0.428   0.441   0.441   0.421   0.403   0.397   0.395
 2015 253    93   369   103      0    109     21    26   443    90    0.40   0.0   0.0   0.00   0.415   0.409   0.410   0.425   0.425   0.412   0.399   0.396   0.396

*DSSAT Cropping System Model Ver. 4.7.5.007 -  MAR 01, 2026 21:19:28
!                                                                                                 Soil water content (mm3/mm3) by soil depth (cm):
!                                                                                                0-10   10-20   20-30   30-40   40-50   50-60   60-70   70-80   80-90
@YEAR DOY   DAS  SWTD  SWXD   ROFC   DRNC   PREC  IR#C  IRRC  DTWT    MWTD  TDFD  TDFC   ROFD    SW1D    SW2D    SW3D    SW4D    SW5D    SW6D    SW7D    SW8D    SW9D
 2016 131     0   329   106      0      0      0     0     0     0    0.00   0.0   0.0   0.00   0.391   0.375   0.356   0.362   0.362   0.362   0.362   0.362   0.362
 2016 132     1   346   123      0      0      0     1    20    45    0.00   0.0   0.0   0.00   0.468   0.430   0.395   0.372   0.363   0.360   0.359   0.359   0.359
 2016 133     2   339   115      0      4      0     1    20    90    0.00   0.0   0.0   0.00   0.441   0.409   0.380   0.365   0.359   0.359   0.359   0.359   0.359
 2016 134     3   340   116      0      4      4     1    20    90    0.00   0.0   0.0   0.03   0.451   0.412   0.382   0.370   0.361   0.356   0.356   0.356   0.356
 2016 135     4   336   112      0      6      4     1    20    90    0.00   0.0   0.0   0.00   0.429   0.397   0.371   0.364   0.359   0.359   0.359   0.359   0.359
 2016 136     5   333   109      0      6      4     1    20    90    0.00   0.0   0.0   0.00   0.416   0.389   0.364   0.362   0.360   0.360   0.360   0.360   0.360
 2016 137     6   360   136      1      6     14     2    40    90    0.00   0.0   0.0   0.85   0.469   0.429   0.427   0.422   0.404   0.371   0.361   0.358   0.357
 2016 138     7   357   133      1      6     15     2    40    90    0.00   0.0   0.0   0.00   0.446   0.424   0.417   0.420   0.406   0.379   0.365   0.357   0.354
 2016 139     8   346   123      1     14     15     2    40    90    0.00   0.0   0.0   0.00   0.426   0.406   0.395   0.399   0.389   0.371   0.361   0.359   0.359
 2016 140     9   339   115      1     18     15     2    40    90    0.00   0.0   0.0   0.00   0.411   0.392   0.380   0.384   0.378   0.365   0.359   0.359   0.359
 2016 141    10   355   132      1     18     15     3    60    90    0.00   0.0   0.0   0.00   0.467   0.429   0.426   0.407   0.384   0.369   0.360   0.356   0.356
 2016 142    11   346   122      1     25     15     3    60    90    0.00   0.0   0.0   0.00   0.440   0.409   0.401   0.390   0.375   0.364   0.359   0.359   0.359
 2016 143    12   338   114      1     29     15     3    60    90    0.00   0.0   0.0   0.00   0.421   0.394   0.384   0.378   0.367   0.360   0.359   0.359   0.359
 2016 144    13   334   110      1     31     15     3    60    90    0.00   0.0   0.0   0.00   0.409   0.386   0.373   0.371   0.364   0.360   0.360   0.360   0.360
 2016 145    14   341   117      1     31     15     4    70    90    0.00   0.0   0.0   0.00   0.467   0.403   0.374   0.372   0.364   0.359   0.357   0.357   0.357
 2016 146    15   335   112      1     33     15     4    70    90    0.00   0.0   0.0   0.00   0.438   0.390   0.364   0.365   0.361   0.359   0.359   0.359   0.359
 2016 147    16   331   108      1     34     15     4    70    90    0.00   0.0   0.0   0.00   0.419   0.381   0.358   0.361   0.359   0.359   0.359   0.359   0.359
 2016 148    17   338   114      1     34     15     5    80    90    0.00   0.0   0.0   0.00   0.465   0.406   0.364   0.362   0.357   0.356   0.356   0.356   0.356
 2016 149    18   334   110      1     34     15     5    80    90    0.00   0.0   0.0   0.00   0.436   0.391   0.357   0.358   0.359   0.359   0.359   0.359   0.359
 2016 150    19   330   107      1     34     15     5    80    90    0.00   0.0   0.0   0.00   0.417   0.381   0.353   0.359   0.359   0.359   0.359   0.359   0.358
 2016 151    20   337   113      1     34     15     6    90    90    0.00   0.0   0.0   0.00   0.465   0.405   0.360   0.359   0.356   0.356   0.356   0.356   0.355
 2016 152    21   333   109      1     34     15     6    90    90    0.00   0.0   0.0   0.00   0.436   0.390   0.354   0.358   0.359   0.359   0.359   0.359   0.356
 2016 153    22   339   115      1     34     15     7   100    90    0.00   0.0   0.0   0.00   0.465   0.424   0.366   0.361   0.356   0.356   0.356   0.356   0.353
 2016 154    23   336   112      1     35     15     7   100    90    0.00   0.0   0.0   0.00   0.438   0.404   0.360   0.360   0.360   0.360   0.360   0.360   0.360
 2016 155    24   339   115      1     35     15     8   106    90    0.00   0.0   0.0   0.00   0.463   0.410   0.367   0.362   0.359   0.358   0.358   0.358   0.358
 2016 156    25   335   111      1     36     15     8   106    90    0.00   0.0   0.0   0.00   0.434   0.394   0.359   0.359   0.360   0.360   0.360   0.360   0.360
 2016 157    26   330   107      1     37     15     8   106    90    0.00   0.0   0.0   0.00   0.413   0.381   0.354   0.358   0.359   0.360   0.360   0.360   0.360
 2016 158    27   326   103      1     37     15     8   106    90    0.00   0.0   0.0   0.00   0.398   0.371   0.350   0.358   0.359   0.357   0.357   0.357   0.357
 2016 159    28   333   110      1     37     15     9   116    90    0.00   0.0   0.0   0.00   0.461   0.387   0.353   0.355   0.357   0.355   0.355   0.355   0.355
 2016 160    29   331   107      1     37     15     9   116    90    0.00   0.0   0.0   0.00   0.433   0.377   0.351   0.359   0.360   0.360   0.357   0.354   0.354
 2016 161    30   337   113      1     37     15    10   126    90    0.01   0.0   0.0   0.00   0.464   0.412   0.361   0.360   0.358   0.359   0.355   0.352   0.352
 2016 162    31   334   110      1     37     15    10   126    90    0.01   0.0   0.0   0.00   0.434   0.394   0.354   0.359   0.360   0.360   0.360   0.360   0.359
 2016 163    32   331   107      1     37     15    10   126    90    0.01   0.0   0.0   0.00   0.413   0.382   0.351   0.359   0.360   0.361   0.361   0.361   0.361
 2016 164    33   328   104      1     37     15    10   126    90    0.02   0.0   0.0   0.00   0.399   0.374   0.351   0.359   0.358   0.359   0.359   0.359   0.359
 2016 165    34   324   101      1     37     15    10   126    90    0.02   0.0   0.0   0.00   0.388   0.367   0.346   0.356   0.356   0.358   0.358   0.358   0.358
 2016 166    35   322    98      1     37     15    10   126    90    0.02   0.0   0.0   0.00   0.373   0.361   0.342   0.354   0.356   0.358   0.358   0.358   0.358
 2016 167    36   329   105      1     37     15    11   136    90    0.03   0.0   0.0   0.00   0.444   0.373   0.339   0.350   0.354   0.356   0.356   0.356   0.357
 2016 168    37   331   107      1     37     15    12   142    90    0.03   0.0   0.0   0.00   0.462   0.388   0.341   0.347   0.352   0.355   0.355   0.355   0.355
 2016 169    38   327   104      1     37     15    12   142    90    0.03   0.0   0.0   0.00   0.430   0.376   0.350   0.354   0.350   0.354   0.354   0.354   0.354
 2016 170    39   334   110      1     37     15    13   152    90    0.03   0.0   0.0   0.00   0.462   0.408   0.357   0.354   0.348   0.353   0.353   0.353   0.353
 2016 171    40   331   107      1     37     15    13   152    90    0.03   0.0   0.0   0.00   0.431   0.390   0.351   0.359   0.360   0.360   0.352   0.352   0.352
 2016 172    41   327   104      1     37     15    13   152    90    0.04   0.0   0.0   0.00   0.409   0.378   0.350   0.359   0.360   0.361   0.355   0.351   0.351
 2016 173    42   331   107      1     37     15    14   158    90    0.03   0.0   0.0   0.00   0.440   0.385   0.352   0.356   0.359   0.360   0.354   0.350   0.350
 2016 174    43   328   104      1     37     15    14   158    90    0.04   0.0   0.0   0.00   0.417   0.375   0.351   0.359   0.361   0.361   0.356   0.349   0.349
 2016 175    44   335   111      1     37     15    15   168    90    0.04   0.0   0.0   0.00   0.463   0.399   0.357   0.359   0.359   0.361   0.355   0.349   0.349
 2016 176    45   332   108      1     37     15    15   168    90    0.04   0.0   0.0   0.00   0.431   0.384   0.350   0.359   0.360   0.361   0.361   0.361   0.349
 2016 177    46   338   114      1     37     15    16   178    90    0.04   0.0   0.0   0.00   0.461   0.414   0.360   0.359   0.359   0.360   0.360   0.360   0.349
 2016 178    47   334   110      1     38     15    16   178    90    0.04   0.0   0.0   0.00   0.429   0.393   0.352   0.358   0.360   0.361   0.361   0.361   0.361
 2016 179    48   330   106      1     39     15    16   178    90    0.04   0.0   0.0   0.00   0.407   0.379   0.349   0.358   0.360   0.361   0.361   0.361   0.361
 2016 180    49   326   103      1     39     15    16   178    90    0.04   0.0   0.0   0.00   0.392   0.369   0.349   0.355   0.359   0.361   0.361   0.361   0.361
 2016 181    50   340   117      1     39     15    17   195    90    0.03   0.0   0.0   0.00   0.462   0.425   0.363   0.357   0.357   0.360   0.360   0.360   0.360
 2016 182    51   336   112      1     41     15    17   195    90    0.03   0.0   0.0   0.00   0.434   0.404   0.356   0.360   0.361   0.362   0.362   0.362   0.362
 2016 183    52   331   107      1     42     15    17   195    90    0.04   0.0   0.0   0.00   0.410   0.387   0.350   0.358   0.360   0.361   0.361   0.361   0.361
 2016 184    53   352   128      1     42     15    18   219    90    0.03   0.0   0.0   0.00   0.464   0.426   0.425   0.392   0.369   0.364   0.361   0.361   0.361
 2016 185    54   342   119      1     49     15    18   219    90    0.03   0.0   0.0   0.00   0.431   0.402   0.398   0.380   0.366   0.364   0.361   0.361   0.361
 2016 186    55   336   112      1     53     15    18   219    90    0.03   0.0   0.0   0.00   0.410   0.387   0.380   0.371   0.363   0.363   0.361   0.361   0.361
 2016 187    56   331   107      1     54     15    18   219    90    0.03   0.0   0.0   0.00   0.396   0.376   0.367   0.365   0.362   0.362   0.361   0.361   0.361
 2016 188    57   352   129      1     54     15    19   243    90    0.03   0.0   0.0   0.00   0.463   0.426   0.425   0.391   0.370   0.364   0.362   0.361   0.361
 2016 189    58   342   119      1     61     15    19   243    90    0.04   0.0   0.0   0.00   0.432   0.403   0.398   0.379   0.366   0.364   0.361   0.361   0.361
 2016 190    59   336   112      1     65     15    19   243    90    0.03   0.0   0.0   0.00   0.410   0.386   0.379   0.371   0.363   0.363   0.361   0.361   0.361
 2016 191    60   356   132      1     65     15    20   267    90    0.03   0.0   0.0   0.00   0.462   0.425   0.424   0.420   0.380   0.368   0.363   0.360   0.360
 2016 192    61   345   121      1     72     15    20   267    90    0.03   0.0   0.0   0.00   0.430   0.401   0.397   0.399   0.373   0.365   0.362   0.361   0.361
 2016 193    62   337   113      1     77     15    20   267    90    0.03   0.0   0.0   0.00   0.409   0.385   0.378   0.385   0.368   0.364   0.361   0.361   0.361
 2016 194    63   331   108      1     79     15    20   267    90    0.04   0.0   0.0   0.00   0.392   0.373   0.365   0.374   0.364   0.363   0.361   0.361   0.361
 2016 195    64   352   128      1     79     15    21   291    90    0.04   0.0   0.0   0.00   0.463   0.425   0.424   0.392   0.372   0.365   0.362   0.360   0.360
 2016 196    65   342   118      1     86     15    21   291    90    0.03   0.0   0.0   0.00   0.430   0.401   0.397   0.379   0.367   0.363   0.361   0.361   0.361
 2016 197    66   335   111      1     89     15    21   291    90    0.03   0.0   0.0   0.00   0.407   0.384   0.378   0.370   0.363   0.362   0.361   0.361   0.361
 2016 198    67   330   106      1     90     15    21   291    90    0.03   0.0   0.0   0.00   0.391   0.372   0.364   0.363   0.361   0.361   0.361   0.361   0.361
 2016 199    68   327   103      1     90     15    21   291    90    0.03   0.0   0.0   0.00   0.382   0.365   0.356   0.360   0.360   0.361   0.360   0.360   0.360
 2016 200    69   347   123      1     90     15    22   315    90    0.03   0.0   0.0   0.00   0.462   0.425   0.407   0.374   0.364   0.362   0.359   0.359   0.359
 2016 201    70   339   115      1     95     15    22   315    90    0.02   0.0   0.0   0.00   0.430   0.401   0.385   0.367   0.362   0.361   0.361   0.361   0.361
 2016 202    71   333   109      1     98     15    22   315    90    0.02   0.0   0.0   0.00   0.408   0.385   0.370   0.362   0.360   0.361   0.361   0.361   0.361
 2016 203    72   353   129      1     98     15    23   339    90    0.02   0.0   0.0   0.00   0.462   0.425   0.424   0.405   0.373   0.364   0.361   0.360   0.360
 2016 204    73   343   119      1    104     15    23   339    90    0.02   0.0   0.0   0.00   0.430   0.401   0.397   0.388   0.367   0.363   0.361   0.361   0.361
 2016 205    74   336   112      1    108     15    23   339    90    0.02   0.0   0.0   0.00   0.410   0.386   0.379   0.377   0.364   0.362   0.361   0.361   0.361
 2016 206    75   330   107      1    110     15    23   339    90    0.02   0.0   0.0   0.00   0.393   0.374   0.365   0.368   0.362   0.361   0.361   0.361   0.361
 2016 207    76   351   127      1    110     15    24   363    90    0.01   0.0   0.0   0.00   0.461   0.424   0.423   0.388   0.368   0.363   0.359   0.359   0.359
 2016 208    77   341   117      1    115     15    24   363    90    0.01   0.0   0.0   0.00   0.429   0.400   0.396   0.376   0.364   0.362   0.361   0.361   0.361
 2016 209    78   334   110      1    118     15    24   363    90    0.01   0.0   0.0   0.00   0.407   0.384   0.377   0.367   0.362   0.361   0.361   0.361   0.361
 2016 210    79   354   130      1    118     15    25   387    90    0.01   0.0   0.0   0.00   0.461   0.424   0.423   0.412   0.376   0.364   0.361   0.359   0.359
 2016 211    80   343   119      1    125     15    25   387    90    0.01   0.0   0.0   0.00   0.429   0.400   0.396   0.392   0.369   0.363   0.361   0.361   0.361
 2016 212    81   335   112      1    129     15    25   387    90    0.01   0.0   0.0   0.00   0.407   0.384   0.377   0.379   0.365   0.362   0.361   0.361   0.361
 2016 213    82   330   107      1    130     15    25   387    90    0.01   0.0   0.0   0.00   0.392   0.373   0.364   0.370   0.362   0.360   0.360   0.360   0.360
 2016 214    83   350   127      1    130     15    26   411    90    0.04   0.0   0.0   0.00   0.462   0.425   0.424   0.387   0.368   0.362   0.358   0.358   0.358
 2016 215    84   341   117      1    136     15    26   411    90    0.06   0.0   0.0   0.00   0.432   0.402   0.397   0.376   0.364   0.360   0.360   0.360   0.360
 2016 216    85   335   111      1    139     15    26   411    90    0.06   0.0   0.0   0.00   0.412   0.388   0.379   0.368   0.361   0.360   0.360   0.360   0.360
 2016 217    86   355   131      1    139     15    27   435    90    0.05   0.0   0.0   0.00   0.465   0.427   0.425   0.421   0.377   0.363   0.359   0.357   0.357
 2016 218    87   345   121      1    146     15    27   435    90    0.05   0.0   0.0   0.00   0.436   0.406   0.399   0.399   0.369   0.360   0.359   0.359   0.359
[...]
 2016 218    65   353   129      0     98      0    21   345    90    0.03   0.0   0.0   0.00   0.460   0.423   0.422   0.407   0.375   0.365   0.362   0.360   0.360
 2016 219    66   342   119      0    105      0    21   345    90    0.03   0.0   0.0   0.00   0.427   0.398   0.395   0.389   0.369   0.364   0.361   0.361   0.361
 2016 220    67   335   111      0    109      0    21   345    90    0.03   0.0   0.0   0.00   0.404   0.381   0.375   0.376   0.365   0.363   0.361   0.361   0.361
 2016 221    68   329   105      0    110      0    21   345    90    0.03   0.0   0.0   0.00   0.388   0.369   0.362   0.368   0.362   0.361   0.361   0.361   0.361
 2016 222    69   349   125      0    110      0    22   369    90    0.03   0.0   0.0   0.00   0.459   0.423   0.416   0.382   0.367   0.363   0.359   0.359   0.359
 2016 223    70   339   116      0    115      0    22   369    90    0.03   0.0   0.0   0.00   0.427   0.398   0.390   0.372   0.363   0.362   0.361   0.361   0.361
 2016 224    71   333   109      0    118      0    22   369    90    0.02   0.0   0.0   0.00   0.405   0.383   0.373   0.365   0.361   0.361   0.361   0.361   0.361
 2016 225    72   353   129      0    118      0    23   393    90    0.02   0.0   0.0   0.00   0.461   0.424   0.423   0.406   0.374   0.364   0.361   0.360   0.360
 2016 226    73   343   119      0    125      0    23   393    90    0.02   0.0   0.0   0.00   0.430   0.401   0.397   0.389   0.368   0.363   0.361   0.361   0.361
 2016 227    74   349   125      0    125      0    24   402    90    0.02   0.0   0.0   0.00   0.462   0.420   0.394   0.391   0.374   0.366   0.362   0.360   0.360
 2016 228    75   340   116      0    130      0    24   402    90    0.02   0.0   0.0   0.00   0.430   0.398   0.376   0.378   0.368   0.364   0.361   0.361   0.361
 2016 229    76   359   136      2    130     23    24   402    90    0.37   0.0   0.0   2.24   0.471   0.432   0.429   0.422   0.385   0.370   0.364   0.361   0.361
 2016 230    77   373   149      4    130     44    24   402    90    0.29   0.0   0.0   2.21   0.452   0.419   0.420   0.420   0.423   0.425   0.423   0.379   0.366
 2016 231    78   354   130      4    143     44    24   402    90    0.23   0.0   0.0   0.00   0.417   0.393   0.390   0.397   0.401   0.404   0.403   0.372   0.363
 2016 232    79   341   118      4    151     44    24   402    90    0.18   0.0   0.0   0.00   0.395   0.376   0.371   0.381   0.387   0.389   0.388   0.367   0.361
 2016 233    80   346   122      4    151     44    25   411    90    0.14   0.0   0.0   0.00   0.446   0.382   0.363   0.375   0.382   0.386   0.386   0.372   0.363
 2016 234    81   339   115      4    156     44    25   411    90    0.11   0.0   0.0   0.00   0.424   0.375   0.358   0.369   0.375   0.378   0.378   0.368   0.362
 2016 235    82   344   120      4    156     44    26   421    90    0.08   0.0   0.0   0.00   0.459   0.401   0.360   0.365   0.370   0.374   0.376   0.369   0.363
 2016 236    83   335   112      4    160     44    26   421    90    0.10   0.0   0.0   0.00   0.428   0.385   0.352   0.360   0.365   0.369   0.369   0.365   0.361
 2016 237    84   330   106      4    161     44    26   421    90    0.10   0.0   0.0   0.00   0.408   0.374   0.350   0.358   0.362   0.364   0.365   0.362   0.360
 2016 238    85   326   102      4    161     44    26   421    90    0.09   0.0   0.0   0.00   0.394   0.368   0.348   0.353   0.358   0.361   0.362   0.359   0.357
 2016 239    86   322    98      4    161     44    26   421    90    0.08   0.0   0.0   0.00   0.385   0.362   0.342   0.349   0.355   0.358   0.359   0.356   0.354
 2016 240    87   321    98      4    161     48    26   421    90    0.63   0.0   0.0   0.00   0.404   0.363   0.337   0.345   0.351   0.355   0.356   0.353   0.351
 2016 241    88   319    95      4    161     48    26   421    90    0.45   0.0   0.0   0.00   0.398   0.363   0.333   0.342   0.349   0.353   0.353   0.351   0.348
 2016 242    89   317    93      4    161     48    26   421    90    0.29   0.0   0.0   0.00   0.392   0.362   0.330   0.339   0.346   0.350   0.351   0.349   0.346

*DSSAT Cropping System Model Ver. 4.7.5.007 -  MAR 01, 2026 21:19:28
!                                                                                                 Soil water content (mm3/mm3) by soil depth (cm):
!                                                                                                0-10   10-20   20-30   30-40   40-50   50-60   60-70   70-80   80-90
@YEAR DOY   DAS  SWTD  SWXD   ROFC   DRNC   PREC  IR#C  IRRC  DTWT    MWTD  TDFD  TDFC   ROFD    SW1D    SW2D    SW3D    SW4D    SW5D    SW6D    SW7D    SW8D    SW9D
 2017 107     0   324    99      0      0      0     0     0     0    0.00   0.0   0.0   0.00   0.393   0.395   0.371   0.347   0.347   0.347   0.347   0.347   0.347
 2017 108     1   334   110      0      0      0     1    13    45    0.00   0.0   0.0   0.00   0.454   0.431   0.385   0.349   0.346   0.344   0.344   0.344   0.344
 2017 109     2   337   112      0      0      6     1    13    90    0.00   0.0   0.0   0.45   0.454   0.431   0.412   0.359   0.348   0.343   0.341   0.341   0.341
 2017 110     3   361   136     52      0     84     1    13    90    0.00   0.0   0.0  51.39   0.478   0.431   0.434   0.421   0.421   0.388   0.353   0.342   0.338
 2017 111     4   364   140     52      0     91     1    13    90    0.00   0.0   0.0   0.58   0.455   0.432   0.436   0.422   0.422   0.418   0.371   0.349   0.338
 2017 112     5   362   137     52      0     91     1    13    90    0.00   0.0   0.0   0.00   0.437   0.430   0.424   0.413   0.417   0.415   0.383   0.358   0.341
 2017 113     6   371   147     52      0     91     2    26    90    0.00   0.0   0.0   0.00   0.454   0.431   0.434   0.421   0.421   0.421   0.411   0.372   0.348
 2017 114     7   354   129     52     14     91     2    26    90    0.00   0.0   0.0   0.00   0.431   0.416   0.411   0.395   0.395   0.395   0.389   0.361   0.345
 2017 115     8   365   141     57     15    111     2    26    90    0.00   0.0   0.0   4.53   0.453   0.431   0.434   0.421   0.412   0.398   0.389   0.367   0.350
 2017 116     9   350   126     57     27    111     2    26    90    0.00   0.0   0.0   0.00   0.432   0.416   0.412   0.396   0.390   0.380   0.374   0.358   0.347
 2017 117    10   360   135     57     27    111     3    39    90    0.00   0.0   0.0   0.00   0.454   0.431   0.434   0.419   0.396   0.382   0.374   0.361   0.349
 2017 118    11   356   132     57     27    111     3    39    90    0.00   0.0   0.0   0.00   0.434   0.427   0.422   0.410   0.398   0.384   0.375   0.363   0.351
 2017 119    12   343   119     57     37    111     3    39    90    0.00   0.0   0.0   0.00   0.417   0.413   0.403   0.388   0.379   0.370   0.363   0.355   0.347
 2017 120    13   334   110     57     43    111     3    39    90    0.00   0.0   0.0   0.00   0.405   0.403   0.389   0.372   0.366   0.360   0.355   0.349   0.344
 2017 121    14   328   104     57     46    111     3    39    90    0.00   0.0   0.0   0.00   0.396   0.395   0.379   0.361   0.357   0.353   0.350   0.346   0.344
 2017 122    15   338   113     57     46    111     4    52    90    0.00   0.0   0.0   0.00   0.452   0.429   0.392   0.361   0.356   0.352   0.348   0.345   0.341
 2017 123    16   331   106     57     49    111     4    52    90    0.00   0.0   0.0   0.00   0.429   0.414   0.382   0.354   0.350   0.347   0.345   0.344   0.344
 2017 124    17   326   101     57     51    111     4    52    90    0.00   0.0   0.0   0.00   0.412   0.402   0.374   0.348   0.346   0.344   0.344   0.344   0.344
 2017 125    18   333   108     58     51    123     4    52    90    0.00   0.0   0.0   1.33   0.451   0.428   0.386   0.351   0.346   0.341   0.341   0.341   0.341
 2017 126    19   328   104     58     52    123     4    52    90    0.00   0.0   0.0   0.00   0.427   0.412   0.377   0.346   0.344   0.344   0.344   0.344   0.344
 2017 127    20   337   113     58     52    123     5    65    90    0.00   0.0   0.0   0.00   0.451   0.428   0.423   0.360   0.347   0.342   0.341   0.341   0.341
 2017 128    21   331   106     58     54    123     5    65    90    0.00   0.0   0.0   0.00   0.425   0.411   0.401   0.352   0.344   0.344   0.344   0.344   0.344
 2017 129    22   326   101     58     55    123     5    65    90    0.00   0.0   0.0   0.00   0.407   0.398   0.386   0.347   0.344   0.344   0.344   0.344   0.344
 2017 130    23   322    97     58     55    123     5    65    90    0.00   0.0   0.0   0.00   0.394   0.390   0.375   0.343   0.344   0.344   0.344   0.341   0.341
 2017 131    24   317    93     58     55    123     5    65    90    0.00   0.0   0.0   0.00   0.385   0.381   0.368   0.340   0.340   0.341   0.341   0.338   0.338
 2017 132    25   326   101     58     55    123     6    78    90    0.00   0.0   0.0   0.00   0.449   0.417   0.371   0.339   0.337   0.338   0.338   0.335   0.335
 2017 133    26   322    98     58     55    123     6    78    90    0.00   0.0   0.0   0.00   0.429   0.414   0.373   0.338   0.334   0.335   0.335   0.332   0.332
 2017 134    27   320    95     58     55    125     6    78    90    0.00   0.0   0.0   0.00   0.424   0.410   0.373   0.338   0.331   0.332   0.332   0.330   0.329
 2017 135    28   319    94     58     55    127     6    78    90    0.00   0.0   0.0   0.00   0.424   0.410   0.374   0.338   0.329   0.330   0.330   0.328   0.328
 2017 136    29   324    99     59     55    137     6    78    90    0.00   0.0   0.0   0.87   0.449   0.427   0.387   0.344   0.326   0.328   0.328   0.326   0.326
 2017 137    30   340   115     59     55    143     7    91    90    0.01   0.0   0.0   0.30   0.451   0.429   0.434   0.422   0.355   0.331   0.327   0.324   0.324
 2017 138    31   336   111     59     55    143     7    91    90    0.01   0.0   0.0   0.00   0.429   0.422   0.419   0.411   0.370   0.340   0.325   0.322   0.322
 2017 139    32   354   130     70     55    175     7    91    90    0.02   0.0   0.0  10.74   0.451   0.429   0.433   0.421   0.423   0.399   0.347   0.321   0.321
 2017 140    33   354   129     70     55    175     7    91    90    0.02   0.0   0.0   0.00   0.436   0.429   0.424   0.415   0.420   0.405   0.364   0.328   0.321
 2017 141    34   346   121     70     61    175     7    91    90    0.03   0.0   0.0   0.00   0.417   0.414   0.404   0.392   0.396   0.386   0.358   0.346   0.346
 2017 142    35   355   131     70     61    175     8   104    90    0.03   0.0   0.0   0.00   0.449   0.427   0.432   0.398   0.396   0.388   0.366   0.351   0.347
 2017 143    36   342   118     70     70    175     8   104    90    0.03   0.0   0.0   0.00   0.423   0.410   0.408   0.379   0.379   0.374   0.359   0.348   0.346
 2017 144    37   333   108     70     76    175     8   104    90    0.04   0.0   0.0   0.00   0.403   0.396   0.390   0.365   0.367   0.364   0.354   0.347   0.345
 2017 145    38   327   102     70     78    175     8   104    90    0.04   0.0   0.0   0.00   0.389   0.387   0.377   0.356   0.358   0.358   0.350   0.346   0.346
 2017 146    39   322    97     70     79    175     8   104    90    0.04   0.0   0.0   0.00   0.379   0.378   0.368   0.349   0.353   0.353   0.348   0.346   0.346
 2017 147    40   331   107     70     79    175     9   117    90    0.04   0.0   0.0   0.00   0.448   0.410   0.370   0.347   0.350   0.351   0.348   0.345   0.344
 2017 148    41   326   101     70     81    175     9   117    90    0.04   0.0   0.0   0.00   0.421   0.397   0.364   0.343   0.348   0.349   0.347   0.346   0.346
 2017 149    42   322    98     70     81    175     9   117    90    0.04   0.0   0.0   0.00   0.401   0.388   0.364   0.341   0.346   0.348   0.346   0.345   0.345
 2017 150    43   320    96     70     81    177     9   117    90    0.09   0.0   0.0   0.00   0.402   0.386   0.357   0.337   0.344   0.347   0.344   0.343   0.344
 2017 151    44   317    92     70     81    177     9   117    90    0.10   0.0   0.0   0.00   0.390   0.380   0.350   0.333   0.342   0.345   0.343   0.342   0.342
 2017 152    45   328   103     70     81    178    10   130    90    0.11   0.0   0.0   0.00   0.450   0.424   0.362   0.331   0.340   0.345   0.343   0.342   0.342
 2017 153    46   326   101     70     81    178    10   130    90    0.11   0.0   0.0   0.00   0.430   0.421   0.370   0.331   0.339   0.344   0.342   0.341   0.341
 2017 154    47   322    98     70     81    178    10   130    90    0.11   0.0   0.0   0.00   0.407   0.404   0.364   0.344   0.339   0.343   0.341   0.340   0.340
 2017 155    48   319    94     70     81    178    10   130    90    0.10   0.0   0.0   0.00   0.392   0.392   0.364   0.340   0.337   0.342   0.340   0.339   0.339
 2017 156    49   315    90     70     81    178    10   130    90    0.09   0.0   0.0   0.00   0.374   0.383   0.357   0.337   0.336   0.342   0.340   0.339   0.339
 2017 157    50   324    99     70     81    178    11   143    90    0.09   0.0   0.0   0.00   0.447   0.408   0.360   0.333   0.334   0.341   0.339   0.338   0.338
 2017 158    51   320    96     70     81    178    11   143    90    0.08   0.0   0.0   0.00   0.419   0.395   0.364   0.339   0.333   0.340   0.338   0.337   0.338
 2017 159    52   317    92     70     81    178    11   143    90    0.08   0.0   0.0   0.00   0.400   0.385   0.364   0.335   0.331   0.339   0.337   0.337   0.337
 2017 160    53   313    89     70     81    178    11   143    90    0.07   0.0   0.0   0.00   0.388   0.379   0.358   0.332   0.330   0.339   0.337   0.336   0.336
 2017 161    54   310    85     70     81    178    11   143    90    0.07   0.0   0.0   0.00   0.372   0.371   0.352   0.330   0.329   0.339   0.337   0.336   0.336
 2017 162    55   320    95     70     81    178    12   156    90    0.06   0.0   0.0   0.00   0.448   0.400   0.352   0.327   0.328   0.338   0.336   0.335   0.335
 2017 163    56   316    92     70     81    178    12   156    90    0.06   0.0   0.0   0.00   0.420   0.389   0.365   0.325   0.326   0.337   0.335   0.334   0.334
 2017 164    57   313    88     70     81    178    12   156    90    0.05   0.0   0.0   0.00   0.401   0.386   0.360   0.322   0.325   0.336   0.334   0.333   0.333
 2017 165    58   309    84     70     81    178    12   156    90    0.05   0.0   0.0   0.00   0.387   0.378   0.353   0.320   0.324   0.335   0.333   0.332   0.332
 2017 166    59   306    81     70     81    178    12   156    90    0.05   0.0   0.0   0.00   0.369   0.369   0.348   0.319   0.323   0.335   0.333   0.332   0.332
 2017 167    60   302    78     70     81    178    12   156    90    0.05   0.0   0.0   0.00   0.352   0.358   0.343   0.317   0.322   0.335   0.333   0.332   0.332
 2017 168    61   299    74     70     81    178    12   156    90    0.05   0.0   0.0   0.00   0.341   0.343   0.338   0.316   0.322   0.334   0.333   0.332   0.332
 2017 169    62   309    84     70     81    178    13   169    90    0.05   0.0   0.0   0.00   0.445   0.354   0.332   0.313   0.320   0.333   0.331   0.330   0.331
 2017 170    63   306    82     70     81    178    13   169    90    0.04   0.0   0.0   0.00   0.419   0.363   0.330   0.311   0.319   0.332   0.331   0.330   0.330
 2017 171    64   303    78     70     81    178    13   169    90    0.04   0.0   0.0   0.00   0.398   0.360   0.327   0.310   0.317   0.331   0.329   0.329   0.329
 2017 172    65   299    75     70     81    178    13   169    90    0.04   0.0   0.0   0.00   0.383   0.350   0.324   0.308   0.316   0.330   0.328   0.327   0.327
 2017 173    66   309    84     70     81    178    14   182    90    0.03   0.0   0.0   0.00   0.442   0.393   0.325   0.306   0.314   0.329   0.327   0.326   0.326
 2017 174    67   305    81     70     81    178    14   182    90    0.03   0.0   0.0   0.00   0.414   0.384   0.335   0.304   0.313   0.328   0.326   0.325   0.325
 2017 175    68   302    77     70     81    178    14   182    90    0.03   0.0   0.0   0.00   0.395   0.380   0.332   0.303   0.312   0.326   0.325   0.324   0.324
 2017 176    69   299    74     70     81    178    14   182    90    0.03   0.0   0.0   0.00   0.382   0.369   0.329   0.301   0.310   0.325   0.323   0.323   0.323
 2017 177    70   295    71     70     81    178    14   182    90    0.03   0.0   0.0   0.00   0.363   0.359   0.327   0.301   0.310   0.325   0.323   0.322   0.323
 2017 178    71   305    80     70     81    178    15   195    90    0.02   0.0   0.0   0.00   0.449   0.380   0.324   0.299   0.309   0.324   0.322   0.321   0.321
 2017 179    72   302    77     70     81    178    15   195    90    0.02   0.0   0.0   0.00   0.420   0.385   0.324   0.298   0.307   0.323   0.321   0.320   0.320
 2017 180    73   298    73     70     81    178    15   195    90    0.02   0.0   0.0   0.00   0.398   0.382   0.322   0.296   0.306   0.321   0.320   0.319   0.319
 2017 181    74   296    71     70     81    178    15   195    90    0.02   0.0   0.0   0.00   0.388   0.376   0.320   0.295   0.305   0.320   0.319   0.318   0.318
 2017 182    75   293    68     70     81    178    15   195    90    0.02   0.0   0.0   0.00   0.369   0.366   0.319   0.295   0.305   0.320   0.319   0.318   0.318
 2017 183    76   302    77     70     81    178    16   208    90    0.01   0.0   0.0   0.00   0.447   0.389   0.320   0.293   0.303   0.319   0.317   0.316   0.316
 2017 184    77   299    74     70     81    178    16   208    90    0.01   0.0   0.0   0.00   0.418   0.385   0.329   0.292   0.302   0.318   0.316   0.315   0.315
 2017 185    78   296    71     70     81    178    16   208    90    0.01   0.0   0.0   0.00   0.399   0.383   0.326   0.291   0.301   0.316   0.315   0.314   0.314
 2017 186    79   292    68     70     81    178    16   208    90    0.01   0.0   0.0   0.00   0.385   0.374   0.324   0.289   0.299   0.315   0.313   0.313   0.313
 2017 187    80   289    65     70     81    178    16   208    90    0.01   0.0   0.0   0.00   0.365   0.363   0.322   0.289   0.299   0.315   0.313   0.313   0.313
 2017 188    81   286    61     70     81    178    16   208    90    0.01   0.0   0.0   0.00   0.350   0.350   0.321   0.288   0.299   0.315   0.313   0.313   0.313
 2017 189    82   283    59     70     81    178    16   208    90    0.01   0.0   0.0   0.00   0.338   0.338   0.319   0.288   0.299   0.315   0.313   0.313   0.313
 2017 190    83   294    70     70     81    178    17   221    90    0.01   0.0   0.0   0.00   0.436   0.351   0.317   0.288   0.298   0.315   0.313   0.312   0.313
 2017 191    84   291    66     70     81    178    17   221    90    0.01   0.0   0.0   0.00   0.409   0.355   0.314   0.286   0.297   0.313   0.311   0.311   0.311
 2017 192    85   287    62     70     81    178    17   221    90    0.04   0.0   0.0   0.00   0.392   0.351   0.312   0.284   0.295   0.311   0.309   0.309   0.309
 2017 193    86   285    60     70     81    178    17   221    90    0.05   0.0   0.0   0.00   0.375   0.345   0.311   0.284   0.295   0.311   0.309   0.309   0.309
 2017 194    87   283    58     70     81    178    17   221    90    0.06   0.0   0.0   0.00   0.360   0.341   0.310   0.283   0.294   0.311   0.309   0.309   0.309
 2017 195    88   293    68     70     81    178    18   234    90    0.06   0.0   0.0   0.00   0.450   0.367   0.307   0.281   0.292   0.309   0.307   0.306   0.306
 2017 196    89   290    65     70     81    178    18   234    90    0.05   0.0   0.0   0.00   0.426   0.379   0.305   0.279   0.290   0.306   0.305   0.304   0.304
 2017 197    90   287    62     70     81    178    18   234    90    0.04   0.0   0.0   0.00   0.410   0.383   0.302   0.277   0.287   0.304   0.302   0.301   0.301
 2017 198    91   284    59     70     81    178    18   234    90    0.04   0.0   0.0   0.00   0.399   0.383   0.300   0.274   0.285   0.301   0.300   0.299   0.299
