*SOIL TEMPERATURE OUTPUT FILE (DAILY)

*DSSAT Cropping System Model Ver. 4.7.5.007 -  MAR 01, 2026 21:19:28
! TAV  =    23.6
! TAMP =     1.8
!               Temperature (oC) by soil depth (cm):
!               Surface    0-10   10-20   20-30   30-40   40-50   50-60   60-70   70-80   80-90
@YEAR DOY   DAS    TS0D    TS1D    TS2D    TS3D    TS4D    TS5D    TS6D    TS7D    TS8D    TS9D    
 2015 103     1    27.9    27.9    27.8    27.7    27.6    27.5    27.4    27.3    27.2    27.1
 2015 104     2    27.6    27.6    27.5    27.4    27.3    27.2    27.1    27.1    27.0    26.9
 2015 105     3    27.5    27.5    27.4    27.3    27.2    27.2    27.1    27.0    26.9    26.8
 2015 106     4    27.3    27.2    27.1    27.1    27.0    26.9    26.8    26.8    26.7    26.6
 2015 107     5    27.2    27.2    27.1    27.0    26.9    26.9    26.8    26.7    26.6    26.6
 2015 108     6    27.2    27.2    27.1    27.0    27.0    26.9    26.8    26.7    26.7    26.6
 2015 109     7    27.6    27.5    27.4    27.4    27.3    27.2    27.1    27.0    26.9    26.8
 2015 110     8    27.5    27.5    27.4    27.3    27.2    27.1    27.1    27.0    26.9    26.8
 2015 111     9    27.9    27.9    27.8    27.7    27.6    27.5    27.4    27.3    27.2    27.1
 2015 112    10    27.8    27.7    27.7    27.6    27.5    27.4    27.3    27.2    27.1    27.0
 2015 113    11    27.7    27.7    27.6    27.5    27.4    27.3    27.2    27.1    27.1    27.0
 2015 114    12    27.6    27.6    27.5    27.4    27.3    27.2    27.1    27.0    27.0    26.9
 2015 115    13    27.9    27.9    27.8    27.7    27.6    27.5    27.4    27.3    27.2    27.1
 2015 116    14    27.7    27.6    27.5    27.5    27.4    27.3    27.2    27.1    27.0    27.0
 2015 117    15    27.7    27.7    27.6    27.5    27.4    27.3    27.2    27.1    27.1    27.0
 2015 118    16    27.6    27.5    27.5    27.4    27.3    27.2    27.1    27.0    27.0    26.9
 2015 119    17    27.4    27.3    27.2    27.2    27.1    27.0    26.9    26.8    26.8    26.7
 2015 120    18    23.5    23.5    23.6    23.6    23.6    23.6    23.7    23.7    23.7    23.7
 2015 121    19    23.1    23.2    23.2    23.2    23.3    23.3    23.3    23.4    23.4    23.4
 2015 122    20    23.0    23.0    23.0    23.1    23.1    23.2    23.2    23.2    23.3    23.3
 2015 123    21    22.7    22.8    22.8    22.8    22.9    22.9    23.0    23.0    23.1    23.1
 2015 124    22    22.1    22.2    22.2    22.3    22.4    22.4    22.5    22.5    22.6    22.6
 2015 125    23    25.4    25.4    25.3    25.3    25.3    25.3    25.2    25.2    25.2    25.2
 2015 126    24    25.1    25.1    25.1    25.0    25.0    25.0    25.0    25.0    24.9    24.9
 2015 127    25    24.9    24.9    24.9    24.9    24.9    24.9    24.9    24.8    24.8    24.8
 2015 128    26    25.0    25.0    25.0    25.0    25.0    25.0    24.9    24.9    24.9    24.9
 2015 129    27    25.2    25.2    25.2    25.2    25.1    25.1    25.1    25.1    25.1    25.0
 2015 130    28    25.3    25.3    25.3    25.3    25.3    25.2    25.2    25.2    25.2    25.1
 2015 131    29    24.6    24.6    24.5    24.5    24.5    24.5    24.5    24.5    24.5    24.5
 2015 132    30    23.6    23.6    23.6    23.7    23.7    23.7    23.7    23.7    23.8    23.8
 2015 133    31    22.9    22.9    22.9    23.0    23.0    23.0    23.1    23.1    23.2    23.2
 2015 134    32    22.8    22.8    22.8    22.9    22.9    23.0    23.0    23.0    23.1    23.1
 2015 135    33    22.3    22.3    22.4    22.4    22.5    22.5    22.6    22.6    22.7    22.7
 2015 136    34    22.7    22.8    22.8    22.9    22.9    22.9    23.0    23.0    23.1    23.1
 2015 137    35    23.5    23.5    23.5    23.6    23.6    23.6    23.6    23.7    23.7    23.7
 2015 138    36    24.1    24.1    24.1    24.1    24.1    24.1    24.1    24.1    24.1    24.1
 2015 139    37    24.3    24.3    24.3    24.3    24.3    24.3    24.3    24.3    24.3    24.3
 2015 140    38    24.6    24.5    24.5    24.5    24.5    24.5    24.5    24.5    24.5    24.5
 2015 141    39    25.0    25.0    25.0    25.0    25.0    25.0    24.9    24.9    24.9    24.9
 2015 142    40    25.0    25.0    25.0    25.0    24.9    24.9    24.9    24.9    24.9    24.8
 2015 143    41    24.9    24.9    24.9    24.9    24.9    24.9    24.8    24.8    24.8    24.8
 2015 144    42    25.1    25.1    25.0    25.0    25.0    25.0    25.0    24.9    24.9    24.9
 2015 145    43    25.5    25.5    25.5    25.4    25.4    25.4    25.3    25.3    25.3    25.3
 2015 146    44    25.9    25.9    25.8    25.8    25.8    25.7    25.7    25.6    25.6    25.6
 2015 147    45    26.3    26.3    26.2    26.2    26.1    26.1    26.0    25.9    25.9    25.9
 2015 148    46    26.3    26.3    26.2    26.2    26.1    26.0    26.0    25.9    25.9    25.9
 2015 149    47    25.9    25.9    25.8    25.8    25.7    25.7    25.7    25.6    25.6    25.5
 2015 150    48    25.7    25.7    25.6    25.6    25.6    25.5    25.5    25.5    25.4    25.4
 2015 151    49    25.9    25.8    25.8    25.8    25.7    25.7    25.6    25.6    25.6    25.5
 2015 152    50    25.9    25.9    25.8    25.8    25.7    25.7    25.6    25.6    25.6    25.5
 2015 153    51    26.2    26.2    26.1    26.1    26.0    26.0    25.9    25.9    25.8    25.8
 2015 154    52    26.5    26.5    26.4    26.3    26.3    26.2    26.2    26.1    26.0    26.0
 2015 155    53    26.4    26.3    26.3    26.2    26.1    26.1    26.0    26.0    25.9    25.9
 2015 156    54    25.9    25.8    25.8    25.8    25.7    25.7    25.6    25.6    25.5    25.5
 2015 157    55    25.7    25.6    25.6    25.6    25.5    25.5    25.5    25.4    25.4    25.4
 2015 158    56    25.5    25.5    25.4    25.4    25.4    25.3    25.3    25.3    25.2    25.2
 2015 159    57    25.5    25.5    25.4    25.4    25.3    25.3    25.3    25.3    25.2    25.2
 2015 160    58    25.6    25.6    25.5    25.5    25.5    25.4    25.4    25.4    25.3    25.3
 2015 161    59    25.5    25.5    25.5    25.4    25.4    25.3    25.3    25.3    25.2    25.2
 2015 162    60    25.6    25.5    25.5    25.5    25.4    25.4    25.4    25.3    25.3    25.3
 2015 163    61    25.5    25.5    25.5    25.5    25.4    25.4    25.3    25.3    25.3    25.2
 2015 164    62    25.7    25.6    25.6    25.5    25.5    25.5    25.4    25.4    25.3    25.3
 2015 165    63    25.7    25.7    25.6    25.6    25.6    25.5    25.5    25.4    25.4    25.4
 2015 166    64    26.1    26.1    26.0    26.0    25.9    25.9    25.8    25.8    25.7    25.7
 2015 167    65    26.1    26.1    26.1    26.0    26.0    25.9    25.8    25.8    25.8    25.7
 2015 168    66    26.2    26.2    26.1    26.1    26.0    26.0    25.9    25.8    25.8    25.7
 2015 169    67    26.2    26.2    26.1    26.1    26.0    25.9    25.9    25.8    25.8    25.7
 2015 170    68    26.0    25.9    25.9    25.8    25.8    25.7    25.7    25.7    25.6    25.6
 2015 171    69    25.4    25.3    25.3    25.3    25.2    25.2    25.2    25.1    25.1    25.1
 2015 172    70    24.7    24.7    24.6    24.6    24.6    24.6    24.6    24.6    24.5    24.5
 2015 173    71    24.2    24.2    24.2    24.2    24.2    24.2    24.2    24.1    24.1    24.1
 2015 174    72    23.8    23.8    23.8    23.8    23.8    23.8    23.8    23.8    23.8    23.8
 2015 175    73    23.4    23.4    23.5    23.5    23.5    23.5    23.5    23.5    23.5    23.6
 2015 176    74    23.6    23.6    23.6    23.6    23.6    23.6    23.6    23.7    23.7    23.7
 2015 177    75    23.7    23.7    23.7    23.7    23.7    23.7    23.7    23.7    23.7    23.7
 2015 178    76    23.5    23.5    23.5    23.5    23.5    23.5    23.5    23.5    23.6    23.6
 2015 179    77    23.2    23.2    23.2    23.2    23.3    23.3    23.3    23.3    23.3    23.4
 2015 180    78    23.2    23.3    23.3    23.3    23.3    23.3    23.3    23.4    23.4    23.4
 2015 181    79    23.2    23.2    23.2    23.3    23.3    23.3    23.3    23.3    23.4    23.4
 2015 182    80    23.7    23.7    23.7    23.7    23.7    23.7    23.7    23.7    23.7    23.7
 2015 183    81    24.2    24.2    24.2    24.2    24.2    24.2    24.2    24.2    24.2    24.2
 2015 184    82    24.8    24.8    24.7    24.7    24.7    24.7    24.6    24.6    24.6    24.6
 2015 185    83    25.2    25.2    25.1    25.1    25.1    25.0    25.0    25.0    24.9    24.9
 2015 186    84    25.5    25.4    25.4    25.3    25.3    25.3    25.2    25.2    25.1    25.1
 2015 187    85    25.3    25.3    25.2    25.2    25.2    25.1    25.1    25.1    25.0    25.0
 2015 188    86    24.5    24.5    24.5    24.5    24.4    24.4    24.4    24.4    24.4    24.4
 2015 189    87    23.0    23.0    23.0    23.0    23.0    23.1    23.1    23.1    23.1    23.2
 2015 190    88    22.1    22.2    22.2    22.2    22.3    22.3    22.4    22.4    22.5    22.5
 2015 191    89    22.2    22.2    22.2    22.3    22.3    22.4    22.4    22.4    22.5    22.5
 2015 192    90    22.5    22.6    22.6    22.6    22.7    22.7    22.7    22.8    22.8    22.8
 2015 193    91    23.5    23.5    23.5    23.6    23.6    23.6    23.6    23.6    23.6    23.6

*DSSAT Cropping System Model Ver. 4.7.5.007 -  MAR 01, 2026 21:19:28
! TAV  =    23.6
! TAMP =     1.8
!               Temperature (oC) by soil depth (cm):
!               Surface    0-10   10-20   20-30   30-40   40-50   50-60   60-70   70-80   80-90
@YEAR DOY   DAS    TS0D    TS1D    TS2D    TS3D    TS4D    TS5D    TS6D    TS7D    TS8D    TS9D    
 2015 126     1    27.1    27.1    27.0    26.9    26.8    26.8    26.7    26.6    26.6    26.5
 2015 127     2    26.7    26.6    26.6    26.5    26.4    26.4    26.3    26.3    26.2    26.1
 2015 128     3    26.4    26.3    26.3    26.2    26.2    26.1    26.1    26.0    26.0    25.9
 2015 129     4    25.7    25.7    25.7    25.6    25.6    25.6    25.5    25.5    25.5    25.4
 2015 130     5    25.4    25.4    25.3    25.3    25.3    25.3    25.2    25.2    25.2    25.2
 2015 131     6    24.5    24.5    24.5    24.5    24.5    24.5    24.5    24.5    24.5    24.5
 2015 132     7    23.6    23.6    23.6    23.7    23.7    23.7    23.7    23.7    23.8    23.8
 2015 133     8    22.8    22.9    22.9    23.0    23.0    23.0    23.1    23.1    23.1    23.2
 2015 134     9    22.8    22.8    22.8    22.9    22.9    23.0    23.0    23.0    23.1    23.1
 2015 135    10    22.2    22.3    22.3    22.4    22.5    22.5    22.6    22.6    22.7    22.7
 2015 136    11    22.7    22.8    22.8    22.9    22.9    22.9    23.0    23.0    23.1    23.1
 2015 137    12    23.5    23.5    23.6    23.6    23.6    23.6    23.6    23.7    23.7    23.7
 2015 138    13    24.1    24.1    24.1    24.1    24.1    24.1    24.1    24.1    24.1    24.1
 2015 139    14    24.3    24.3    24.3    24.3    24.3    24.3    24.3    24.3    24.3    24.3
 2015 140    15    24.6    24.6    24.5    24.5    24.5    24.5    24.5    24.5    24.5    24.5
 2015 141    16    25.0    25.0    25.0    25.0    25.0    25.0    24.9    24.9    24.9    24.9
 2015 142    17    25.0    25.0    25.0    24.9    24.9    24.9    24.9    24.9    24.9    24.8
 2015 143    18    24.9    24.9    24.9    24.9    24.9    24.9    24.8    24.8    24.8    24.8
 2015 144    19    25.1    25.1    25.1    25.0    25.0    25.0    25.0    25.0    24.9    24.9
 2015 145    20    25.5    25.5    25.5    25.5    25.4    25.4    25.4    25.3    25.3    25.3
 2015 146    21    25.9    25.9    25.9    25.8    25.8    25.7    25.7    25.6    25.6    25.6
 2015 147    22    26.3    26.3    26.2    26.2    26.1    26.1    26.0    26.0    25.9    25.9
 2015 148    23    26.3    26.3    26.2    26.2    26.1    26.0    26.0    25.9    25.9    25.9
 2015 149    24    25.9    25.9    25.8    25.8    25.7    25.7    25.6    25.6    25.6    25.5
 2015 150    25    25.7    25.7    25.6    25.6    25.6    25.5    25.5    25.5    25.4    25.4
 2015 151    26    25.9    25.9    25.8    25.8    25.7    25.7    25.6    25.6    25.6    25.5
 2015 152    27    25.9    25.9    25.8    25.8    25.7    25.7    25.6    25.6    25.6    25.5
 2015 153    28    26.2    26.2    26.1    26.1    26.0    26.0    25.9    25.9    25.8    25.8
 2015 154    29    26.5    26.5    26.4    26.3    26.3    26.2    26.2    26.1    26.1    26.0
 2015 155    30    26.3    26.3    26.3    26.2    26.1    26.1    26.0    26.0    25.9    25.9
 2015 156    31    25.8    25.8    25.8    25.7    25.7    25.6    25.6    25.6    25.5    25.5
 2015 157    32    25.7    25.6    25.6    25.6    25.5    25.5    25.4    25.4    25.4    25.3
 2015 158    33    25.5    25.5    25.4    25.4    25.3    25.3    25.3    25.3    25.2    25.2
 2015 159    34    25.5    25.5    25.4    25.4    25.3    25.3    25.3    25.3    25.2    25.2
 2015 160    35    25.6    25.6    25.6    25.5    25.5    25.4    25.4    25.4    25.3    25.3
 2015 161    36    25.5    25.5    25.5    25.4    25.4    25.3    25.3    25.3    25.2    25.2
 2015 162    37    25.6    25.5    25.5    25.5    25.4    25.4    25.4    25.3    25.3    25.3
 2015 163    38    25.5    25.5    25.5    25.5    25.4    25.4    25.3    25.3    25.3    25.2
 2015 164    39    25.7    25.6    25.6    25.5    25.5    25.5    25.4    25.4    25.4    25.3
 2015 165    40    25.7    25.7    25.6    25.6    25.6    25.5    25.5    25.4    25.4    25.4
 2015 166    41    26.1    26.1    26.0    26.0    25.9    25.9    25.8    25.8    25.7    25.7
 2015 167    42    26.2    26.1    26.1    26.0    26.0    25.9    25.9    25.8    25.8    25.7
 2015 168    43    26.2    26.2    26.1    26.1    26.0    25.9    25.9    25.8    25.8    25.7
 2015 169    44    26.2    26.2    26.1    26.1    26.0    25.9    25.9    25.8    25.8    25.7
 2015 170    45    26.0    25.9    25.9    25.8    25.8    25.7    25.7    25.6    25.6    25.5
 2015 171    46    25.3    25.3    25.3    25.2    25.2    25.2    25.1    25.1    25.1    25.0
 2015 172    47    24.6    24.6    24.6    24.6    24.6    24.5    24.5    24.5    24.5    24.5
 2015 173    48    24.1    24.1    24.1    24.1    24.1    24.1    24.1    24.1    24.1    24.1
 2015 174    49    23.7    23.7    23.7    23.7    23.7    23.8    23.8    23.8    23.8    23.8
 2015 175    50    23.4    23.4    23.4    23.4    23.5    23.5    23.5    23.5    23.5    23.5
 2015 176    51    23.6    23.6    23.6    23.6    23.6    23.6    23.7    23.7    23.7    23.7
 2015 177    52    23.7    23.7    23.7    23.7    23.7    23.7    23.7    23.7    23.7    23.7
 2015 178    53    23.4    23.4    23.5    23.5    23.5    23.5    23.5    23.5    23.5    23.6
 2015 179    54    23.2    23.2    23.2    23.2    23.2    23.3    23.3    23.3    23.3    23.3
 2015 180    55    23.2    23.3    23.3    23.3    23.3    23.3    23.3    23.4    23.4    23.4
 2015 181    56    23.2    23.2    23.2    23.3    23.3    23.3    23.3    23.3    23.3    23.4
 2015 182    57    23.7    23.7    23.7    23.7    23.7    23.7    23.7    23.7    23.7    23.7
 2015 183    58    24.3    24.3    24.3    24.3    24.2    24.2    24.2    24.2    24.2    24.2
 2015 184    59    24.8    24.8    24.8    24.7    24.7    24.7    24.7    24.7    24.6    24.6
 2015 185    60    25.2    25.2    25.2    25.1    25.1    25.1    25.0    25.0    25.0    24.9
 2015 186    61    25.5    25.5    25.4    25.4    25.3    25.3    25.2    25.2    25.2    25.1
 2015 187    62    25.3    25.3    25.2    25.2    25.2    25.1    25.1    25.1    25.0    25.0
 2015 188    63    24.4    24.4    24.4    24.4    24.4    24.4    24.4    24.3    24.3    24.3
 2015 189    64    22.8    22.8    22.9    22.9    22.9    22.9    23.0    23.0    23.0    23.0
 2015 190    65    22.0    22.1    22.1    22.2    22.2    22.3    22.3    22.4    22.4    22.4
 2015 191    66    22.2    22.2    22.2    22.3    22.3    22.4    22.4    22.4    22.5    22.5
 2015 192    67    22.6    22.6    22.6    22.7    22.7    22.7    22.8    22.8    22.8    22.9
 2015 193    68    23.7    23.7    23.7    23.7    23.7    23.7    23.7    23.7    23.7    23.7
 2015 194    69    25.7    25.6    25.6    25.5    25.5    25.4    25.4    25.3    25.3    25.3
 2015 195    70    26.6    26.6    26.5    26.4    26.3    26.3    26.2    26.1    26.1    26.0
 2015 196    71    26.9    26.8    26.7    26.6    26.5    26.5    26.4    26.3    26.2    26.2
 2015 197    72    26.6    26.6    26.5    26.4    26.3    26.3    26.2    26.1    26.1    26.0
 2015 198    73    26.4    26.3    26.3    26.2    26.1    26.0    26.0    25.9    25.9    25.8
 2015 199    74    25.7    25.6    25.6    25.5    25.5    25.4    25.4    25.3    25.3    25.2
 2015 200    75    25.1    25.1    25.1    25.0    25.0    24.9    24.9    24.9    24.8    24.8
 2015 201    76    24.9    24.9    24.9    24.9    24.8    24.8    24.8    24.7    24.7    24.7
 2015 202    77    25.0    25.0    25.0    24.9    24.9    24.9    24.8    24.8    24.8    24.7
 2015 203    78    25.4    25.4    25.3    25.3    25.2    25.2    25.1    25.1    25.1    25.0
 2015 204    79    26.0    26.0    25.9    25.9    25.8    25.8    25.7    25.6    25.6    25.5
 2015 205    80    26.5    26.5    26.4    26.3    26.3    26.2    26.1    26.0    26.0    25.9
 2015 206    81    26.7    26.6    26.5    26.5    26.4    26.3    26.2    26.1    26.1    26.0
 2015 207    82    27.0    26.9    26.8    26.7    26.6    26.6    26.5    26.4    26.3    26.2
 2015 208    83    27.2    27.1    27.0    26.9    26.8    26.7    26.6    26.5    26.5    26.4
 2015 209    84    27.0    27.0    26.9    26.8    26.7    26.6    26.5    26.4    26.3    26.3
 2015 210    85    27.3    27.2    27.1    27.0    26.9    26.8    26.7    26.6    26.6    26.5
 2015 211    86    27.4    27.3    27.2    27.1    27.0    26.9    26.8    26.7    26.6    26.5
 2015 212    87    27.4    27.4    27.3    27.2    27.1    27.0    26.9    26.8    26.7    26.6
 2015 213    88    27.3    27.2    27.1    27.0    26.9    26.8    26.7    26.6    26.5    26.5
 2015 214    89    27.4    27.3    27.2    27.1    27.0    26.9    26.8    26.7    26.6    26.5
 2015 215    90    27.2    27.1    27.0    26.9    26.8    26.7    26.6    26.6    26.5    26.4
 2015 216    91    27.2    27.2    27.1    27.0    26.9    26.8    26.7    26.6    26.5    26.4
 2015 217    92    27.3    27.2    27.1    27.0    26.9    26.8    26.7    26.6    26.5    26.5
 2015 218    93    27.5    27.4    27.3    27.2    27.1    27.0    26.9    26.8    26.7    26.6
 2015 219    94    27.9    27.8    27.7    27.5    27.4    27.3    27.2    27.1    27.0    26.9
 2015 220    95    28.1    28.1    27.9    27.8    27.7    27.6    27.4    27.3    27.2    27.1

*DSSAT Cropping System Model Ver. 4.7.5.007 -  MAR 01, 2026 21:19:28
! TAV  =    23.6
! TAMP =     1.8
!               Temperature (oC) by soil depth (cm):
!               Surface    0-10   10-20   20-30   30-40   40-50   50-60   60-70   70-80   80-90
@YEAR DOY   DAS    TS0D    TS1D    TS2D    TS3D    TS4D    TS5D    TS6D    TS7D    TS8D    TS9D    
 2015 148     1    27.3    27.2    27.1    27.1    27.0    26.9    26.8    26.8    26.7    26.6
 2015 149     2    26.6    26.5    26.5    26.4    26.3    26.3    26.2    26.2    26.1    26.0
 2015 150     3    26.2    26.2    26.1    26.1    26.0    26.0    25.9    25.9    25.8    25.8
 2015 151     4    26.1    26.1    26.1    26.0    26.0    25.9    25.9    25.8    25.8    25.7
 2015 152     5    25.9    25.9    25.8    25.8    25.8    25.7    25.7    25.6    25.6    25.5
 2015 153     6    26.2    26.2    26.1    26.1    26.0    26.0    25.9    25.9    25.8    25.8
 2015 154     7    26.5    26.5    26.4    26.3    26.3    26.2    26.2    26.1    26.1    26.0
 2015 155     8    26.3    26.3    26.3    26.2    26.1    26.1    26.0    26.0    25.9    25.9
 2015 156     9    25.8    25.8    25.8    25.7    25.7    25.6    25.6    25.6    25.5    25.5
 2015 157    10    25.7    25.6    25.6    25.6    25.5    25.5    25.4    25.4    25.4    25.3
 2015 158    11    25.5    25.5    25.4    25.4    25.3    25.3    25.3    25.3    25.2    25.2
 2015 159    12    25.5    25.4    25.4    25.4    25.3    25.3    25.3    25.2    25.2    25.2
 2015 160    13    25.6    25.6    25.6    25.5    25.5    25.4    25.4    25.4    25.3    25.3
 2015 161    14    25.5    25.5    25.5    25.4    25.4    25.3    25.3    25.3    25.2    25.2
 2015 162    15    25.6    25.5    25.5    25.5    25.4    25.4    25.4    25.3    25.3    25.3
 2015 163    16    25.5    25.5    25.5    25.5    25.4    25.4    25.3    25.3    25.3    25.2
 2015 164    17    25.7    25.6    25.6    25.6    25.5    25.5    25.4    25.4    25.4    25.3
 2015 165    18    25.7    25.7    25.7    25.6    25.6    25.5    25.5    25.4    25.4    25.4
 2015 166    19    26.1    26.1    26.0    26.0    25.9    25.9    25.8    25.8    25.7    25.7
 2015 167    20    26.2    26.1    26.1    26.0    26.0    25.9    25.9    25.8    25.8    25.7
 2015 168    21    26.2    26.2    26.1    26.1    26.0    26.0    25.9    25.9    25.8    25.8
 2015 169    22    26.2    26.2    26.1    26.1    26.0    25.9    25.9    25.8    25.8    25.7
 2015 170    23    26.0    25.9    25.9    25.8    25.8    25.7    25.7    25.6    25.6    25.5
 2015 171    24    25.3    25.3    25.2    25.2    25.2    25.1    25.1    25.1    25.1    25.0
 2015 172    25    24.6    24.6    24.6    24.6    24.5    24.5    24.5    24.5    24.5    24.5
 2015 173    26    24.1    24.1    24.1    24.1    24.1    24.1    24.1    24.1    24.1    24.1
 2015 174    27    23.7    23.7    23.7    23.7    23.7    23.8    23.8    23.8    23.8    23.8
 2015 175    28    23.4    23.4    23.4    23.4    23.5    23.5    23.5    23.5    23.5    23.5
 2015 176    29    23.6    23.6    23.6    23.6    23.6    23.6    23.7    23.7    23.7    23.7
 2015 177    30    23.7    23.7    23.7    23.7    23.7    23.7    23.7    23.7    23.7    23.7
 2015 178    31    23.4    23.4    23.5    23.5    23.5    23.5    23.5    23.5    23.5    23.6
 2015 179    32    23.2    23.2    23.2    23.2    23.2    23.3    23.3    23.3    23.3    23.3
 2015 180    33    23.2    23.3    23.3    23.3    23.3    23.3    23.3    23.4    23.4    23.4
 2015 181    34    23.2    23.2    23.2    23.3    23.3    23.3    23.3    23.3    23.3    23.4
 2015 182    35    23.7    23.7    23.7    23.7    23.7    23.7    23.7    23.7    23.8    23.8
 2015 183    36    24.3    24.3    24.3    24.3    24.3    24.3    24.3    24.2    24.2    24.2
 2015 184    37    24.8    24.8    24.8    24.8    24.7    24.7    24.7    24.7    24.7    24.6
 2015 185    38    25.3    25.2    25.2    25.2    25.1    25.1    25.1    25.0    25.0    25.0
 2015 186    39    25.5    25.5    25.4    25.4    25.3    25.3    25.3    25.2    25.2    25.1
 2015 187    40    25.3    25.3    25.2    25.2    25.2    25.1    25.1    25.1    25.0    25.0
 2015 188    41    24.4    24.4    24.4    24.4    24.3    24.3    24.3    24.3    24.3    24.3
 2015 189    42    22.7    22.7    22.8    22.8    22.8    22.9    22.9    22.9    22.9    23.0
 2015 190    43    22.0    22.0    22.1    22.1    22.2    22.2    22.3    22.3    22.4    22.4
 2015 191    44    22.2    22.2    22.2    22.3    22.3    22.4    22.4    22.4    22.5    22.5
 2015 192    45    22.6    22.6    22.7    22.7    22.7    22.8    22.8    22.8    22.8    22.9
 2015 193    46    23.7    23.7    23.7    23.7    23.7    23.7    23.7    23.7    23.7    23.7
 2015 194    47    25.8    25.8    25.7    25.6    25.6    25.5    25.5    25.4    25.4    25.3
 2015 195    48    26.7    26.6    26.6    26.5    26.4    26.3    26.2    26.2    26.1    26.0
 2015 196    49    26.9    26.8    26.7    26.6    26.6    26.5    26.4    26.3    26.3    26.2
 2015 197    50    26.6    26.6    26.5    26.4    26.3    26.3    26.2    26.1    26.0    26.0
 2015 198    51    26.4    26.3    26.2    26.2    26.1    26.0    26.0    25.9    25.8    25.8
 2015 199    52    25.6    25.6    25.5    25.5    25.4    25.4    25.3    25.3    25.2    25.2
 2015 200    53    25.1    25.1    25.0    25.0    24.9    24.9    24.9    24.8    24.8    24.8
 2015 201    54    24.9    24.9    24.9    24.8    24.8    24.8    24.7    24.7    24.7    24.7
 2015 202    55    25.0    25.0    25.0    24.9    24.9    24.9    24.8    24.8    24.8    24.7
 2015 203    56    25.4    25.4    25.3    25.3    25.2    25.2    25.2    25.1    25.1    25.0
 2015 204    57    26.1    26.0    26.0    25.9    25.8    25.8    25.7    25.7    25.6    25.6
 2015 205    58    26.6    26.5    26.4    26.4    26.3    26.2    26.1    26.1    26.0    25.9
 2015 206    59    26.7    26.6    26.6    26.5    26.4    26.3    26.2    26.2    26.1    26.0
 2015 207    60    27.0    26.9    26.8    26.7    26.7    26.6    26.5    26.4    26.3    26.2
 2015 208    61    27.2    27.1    27.0    26.9    26.8    26.7    26.6    26.6    26.5    26.4
 2015 209    62    27.0    27.0    26.9    26.8    26.7    26.6    26.5    26.4    26.4    26.3
 2015 210    63    27.3    27.2    27.1    27.0    26.9    26.8    26.7    26.6    26.6    26.5
 2015 211    64    27.4    27.3    27.2    27.1    27.0    26.9    26.8    26.7    26.6    26.6
 2015 212    65    27.4    27.4    27.3    27.2    27.1    27.0    26.9    26.8    26.7    26.6
 2015 213    66    27.3    27.2    27.1    27.0    26.9    26.8    26.7    26.6    26.5    26.5
 2015 214    67    27.4    27.3    27.2    27.1    27.0    26.9    26.8    26.7    26.6    26.5
 2015 215    68    27.2    27.1    27.0    26.9    26.8    26.7    26.6    26.5    26.5    26.4
 2015 216    69    27.2    27.2    27.1    27.0    26.9    26.8    26.7    26.6    26.5    26.4
 2015 217    70    27.3    27.3    27.1    27.0    26.9    26.8    26.7    26.6    26.5    26.5
 2015 218    71    27.5    27.5    27.3    27.2    27.1    27.0    26.9    26.8    26.7    26.6
 2015 219    72    27.9    27.8    27.7    27.6    27.5    27.3    27.2    27.1    27.0    26.9
 2015 220    73    28.2    28.1    28.0    27.8    27.7    27.6    27.5    27.4    27.2    27.1
 2015 221    74    28.6    28.5    28.3    28.2    28.1    27.9    27.8    27.7    27.6    27.4
 2015 222    75    28.9    28.8    28.7    28.5    28.4    28.2    28.1    28.0    27.8    27.7
 2015 223    76    28.6    28.6    28.4    28.3    28.1    28.0    27.9    27.7    27.6    27.5
 2015 224    77    28.3    28.2    28.1    27.9    27.8    27.7    27.6    27.4    27.3    27.2
 2015 225    78    28.0    27.9    27.8    27.6    27.5    27.4    27.3    27.2    27.1    27.0
 2015 226    79    27.3    27.2    27.1    27.0    26.9    26.8    26.7    26.6    26.5    26.4
 2015 227    80    27.0    26.9    26.8    26.7    26.6    26.5    26.4    26.3    26.3    26.2
 2015 228    81    27.3    27.2    27.1    27.0    26.9    26.8    26.7    26.6    26.5    26.4
 2015 229    82    27.4    27.3    27.2    27.1    27.0    26.9    26.8    26.7    26.6    26.5
 2015 230    83    27.6    27.6    27.4    27.3    27.2    27.1    27.0    26.9    26.8    26.7
 2015 231    84    28.3    28.2    28.1    27.9    27.8    27.7    27.5    27.4    27.3    27.2
 2015 232    85    28.4    28.3    28.1    28.0    27.9    27.7    27.6    27.5    27.4    27.3
 2015 233    86    28.7    28.6    28.4    28.3    28.1    28.0    27.8    27.7    27.6    27.5
 2015 234    87    29.2    29.2    29.0    28.8    28.7    28.5    28.4    28.2    28.1    27.9
 2015 235    88    29.9    29.8    29.6    29.4    29.2    29.1    28.9    28.7    28.6    28.4
 2015 236    89    30.3    30.2    30.0    29.8    29.6    29.4    29.2    29.0    28.9    28.7
 2015 237    90    30.8    30.7    30.5    30.2    30.0    29.9    29.7    29.5    29.3    29.1
 2015 238    91    30.9    30.8    30.6    30.4    30.2    30.0    29.8    29.6    29.4    29.2
 2015 239    92    30.5    30.4    30.2    30.0    29.8    29.6    29.4    29.2    29.0    28.9
 2015 240    93    29.0    29.0    28.8    28.6    28.5    28.3    28.2    28.0    27.9    27.8
 2015 241    94    28.7    28.6    28.4    28.3    28.1    28.0    27.8    27.7    27.5    27.4

*DSSAT Cropping System Model Ver. 4.7.5.007 -  MAR 01, 2026 21:19:28
! TAV  =    23.6
! TAMP =     1.8
!               Temperature (oC) by soil depth (cm):
!               Surface    0-10   10-20   20-30   30-40   40-50   50-60   60-70   70-80   80-90
@YEAR DOY   DAS    TS0D    TS1D    TS2D    TS3D    TS4D    TS5D    TS6D    TS7D    TS8D    TS9D    
 2015 161     1    27.2    27.2    27.1    27.0    26.9    26.8    26.8    26.7    26.6    26.5
 2015 162     2    26.8    26.8    26.7    26.6    26.6    26.5    26.4    26.4    26.3    26.2
 2015 163     3    26.4    26.4    26.3    26.2    26.2    26.1    26.1    26.0    26.0    25.9
 2015 164     4    26.1    26.0    26.0    25.9    25.9    25.8    25.8    25.7    25.7    25.6
 2015 165     5    25.8    25.7    25.7    25.6    25.6    25.6    25.5    25.5    25.4    25.4
 2015 166     6    26.1    26.1    26.0    26.0    25.9    25.9    25.8    25.8    25.7    25.7
 2015 167     7    26.2    26.1    26.1    26.0    26.0    25.9    25.9    25.8    25.8    25.7
 2015 168     8    26.2    26.2    26.1    26.1    26.0    26.0    25.9    25.9    25.8    25.8
 2015 169     9    26.2    26.2    26.1    26.1    26.0    25.9    25.9    25.8    25.8    25.7
 2015 170    10    26.0    25.9    25.9    25.8    25.8    25.7    25.7    25.6    25.6    25.5
 2015 171    11    25.3    25.3    25.2    25.2    25.2    25.1    25.1    25.1    25.1    25.0
 2015 172    12    24.6    24.6    24.6    24.5    24.5    24.5    24.5    24.5    24.5    24.5
 2015 173    13    24.1    24.1    24.1    24.1    24.1    24.1    24.1    24.1    24.1    24.1
 2015 174    14    23.7    23.7    23.7    23.7    23.7    23.7    23.8    23.8    23.8    23.8
 2015 175    15    23.4    23.4    23.4    23.4    23.5    23.5    23.5    23.5    23.5    23.5
 2015 176    16    23.6    23.6    23.6    23.6    23.6    23.7    23.7    23.7    23.7    23.7
 2015 177    17    23.7    23.7    23.7    23.7    23.7    23.7    23.7    23.7    23.7    23.7
 2015 178    18    23.4    23.4    23.4    23.5    23.5    23.5    23.5    23.5    23.5    23.6
 2015 179    19    23.2    23.2    23.2    23.2    23.2    23.3    23.3    23.3    23.3    23.3
 2015 180    20    23.2    23.3    23.3    23.3    23.3    23.3    23.3    23.4    23.4    23.4
 2015 181    21    23.2    23.2    23.2    23.2    23.3    23.3    23.3    23.3    23.3    23.4
 2015 182    22    23.7    23.7    23.7    23.7    23.7    23.7    23.7    23.7    23.8    23.8
 2015 183    23    24.3    24.3    24.3    24.3    24.3    24.3    24.3    24.2    24.2    24.2
 2015 184    24    24.8    24.8    24.8    24.8    24.7    24.7    24.7    24.7    24.7    24.6
 2015 185    25    25.3    25.2    25.2    25.2    25.1    25.1    25.1    25.0    25.0    25.0
 2015 186    26    25.5    25.5    25.4    25.4    25.3    25.3    25.3    25.2    25.2    25.2
 2015 187    27    25.3    25.3    25.2    25.2    25.2    25.1    25.1    25.1    25.0    25.0
 2015 188    28    24.4    24.4    24.3    24.3    24.3    24.3    24.3    24.3    24.3    24.3
 2015 189    29    22.7    22.7    22.7    22.8    22.8    22.8    22.9    22.9    22.9    22.9
 2015 190    30    22.0    22.0    22.1    22.1    22.2    22.2    22.3    22.3    22.3    22.4
 2015 191    31    22.2    22.2    22.2    22.3    22.3    22.4    22.4    22.5    22.5    22.5
 2015 192    32    22.6    22.6    22.7    22.7    22.7    22.8    22.8    22.8    22.9    22.9
 2015 193    33    23.7    23.7    23.7    23.7    23.7    23.7    23.7    23.7    23.8    23.8
 2015 194    34    25.8    25.8    25.7    25.7    25.6    25.6    25.5    25.5    25.4    25.4
 2015 195    35    26.7    26.7    26.6    26.5    26.4    26.3    26.3    26.2    26.1    26.1
 2015 196    36    26.9    26.8    26.7    26.7    26.6    26.5    26.4    26.3    26.3    26.2
 2015 197    37    26.6    26.6    26.5    26.4    26.3    26.2    26.2    26.1    26.0    26.0
 2015 198    38    26.3    26.3    26.2    26.2    26.1    26.0    26.0    25.9    25.8    25.8
 2015 199    39    25.6    25.6    25.5    25.5    25.4    25.4    25.3    25.3    25.2    25.2
 2015 200    40    25.1    25.0    25.0    25.0    24.9    24.9    24.9    24.8    24.8    24.8
 2015 201    41    24.9    24.9    24.9    24.8    24.8    24.8    24.7    24.7    24.7    24.7
 2015 202    42    25.0    25.0    25.0    24.9    24.9    24.9    24.8    24.8    24.8    24.7
 2015 203    43    25.4    25.4    25.4    25.3    25.3    25.2    25.2    25.1    25.1    25.0
 2015 204    44    26.1    26.1    26.0    25.9    25.9    25.8    25.7    25.7    25.6    25.6
 2015 205    45    26.6    26.5    26.5    26.4    26.3    26.2    26.1    26.1    26.0    25.9
 2015 206    46    26.7    26.6    26.6    26.5    26.4    26.3    26.2    26.2    26.1    26.0
 2015 207    47    27.0    26.9    26.8    26.8    26.7    26.6    26.5    26.4    26.3    26.3
 2015 208    48    27.2    27.1    27.0    26.9    26.8    26.7    26.6    26.6    26.5    26.4
 2015 209    49    27.0    27.0    26.9    26.8    26.7    26.6    26.5    26.4    26.3    26.3
 2015 210    50    27.3    27.2    27.1    27.0    26.9    26.8    26.7    26.7    26.6    26.5
 2015 211    51    27.4    27.3    27.2    27.1    27.0    26.9    26.8    26.7    26.6    26.6
 2015 212    52    27.4    27.4    27.3    27.2    27.1    27.0    26.9    26.8    26.7    26.6
 2015 213    53    27.3    27.2    27.1    27.0    26.9    26.8    26.7    26.6    26.5    26.4
 2015 214    54    27.4    27.3    27.2    27.1    27.0    26.9    26.8    26.7    26.6    26.5
 2015 215    55    27.2    27.1    27.0    26.9    26.8    26.7    26.6    26.5    26.5    26.4
 2015 216    56    27.2    27.2    27.1    27.0    26.9    26.8    26.7    26.6    26.5    26.4
 2015 217    57    27.3    27.3    27.1    27.0    26.9    26.8    26.7    26.6    26.6    26.5
 2015 218    58    27.5    27.5    27.4    27.2    27.1    27.0    26.9    26.8    26.7    26.6
 2015 219    59    27.9    27.8    27.7    27.6    27.5    27.4    27.2    27.1    27.0    26.9
 2015 220    60    28.2    28.1    28.0    27.8    27.7    27.6    27.5    27.4    27.3    27.1
 2015 221    61    28.6    28.5    28.4    28.2    28.1    27.9    27.8    27.7    27.6    27.5
 2015 222    62    28.9    28.9    28.7    28.6    28.4    28.3    28.1    28.0    27.9    27.7
 2015 223    63    28.6    28.5    28.4    28.3    28.1    28.0    27.8    27.7    27.6    27.5
 2015 224    64    28.3    28.2    28.1    27.9    27.8    27.7    27.5    27.4    27.3    27.2
 2015 225    65    28.0    27.9    27.8    27.6    27.5    27.4    27.3    27.2    27.1    27.0
 2015 226    66    27.3    27.2    27.1    27.0    26.9    26.8    26.7    26.6    26.5    26.4
 2015 227    67    27.0    26.9    26.8    26.7    26.6    26.5    26.4    26.3    26.2    26.2
 2015 228    68    27.3    27.2    27.1    27.0    26.9    26.8    26.7    26.6    26.5    26.4
 2015 229    69    27.4    27.3    27.2    27.1    27.0    26.9    26.8    26.7    26.6    26.5
 2015 230    70    27.6    27.6    27.4    27.3    27.2    27.1    27.0    26.9    26.8    26.7
 2015 231    71    28.3    28.2    28.1    27.9    27.8    27.7    27.5    27.4    27.3    27.2
 2015 232    72    28.4    28.3    28.1    28.0    27.9    27.7    27.6    27.5    27.4    27.3
 2015 233    73    28.7    28.6    28.4    28.3    28.1    28.0    27.9    27.7    27.6    27.5
 2015 234    74    29.3    29.2    29.0    28.8    28.7    28.5    28.4    28.2    28.1    28.0
 2015 235    75    29.9    29.8    29.6    29.4    29.2    29.1    28.9    28.7    28.6    28.4
 2015 236    76    30.3    30.2    30.0    29.8    29.6    29.4    29.2    29.1    28.9    28.7
 2015 237    77    30.8    30.7    30.5    30.3    30.1    29.9    29.7    29.5    29.3    29.1
 2015 238    78    30.9    30.8    30.6    30.4    30.2    30.0    29.8    29.6    29.4    29.2
 2015 239    79    30.4    30.3    30.1    29.9    29.7    29.5    29.4    29.2    29.0    28.9
 2015 240    80    29.0    28.9    28.7    28.5    28.4    28.2    28.1    28.0    27.8    27.7
 2015 241    81    28.6    28.5    28.4    28.2    28.1    27.9    27.8    27.6    27.5    27.4
 2015 242    82    28.5    28.4    28.3    28.1    28.0    27.9    27.7    27.6    27.5    27.3
 2015 243    83    28.7    28.7    28.5    28.3    28.2    28.1    27.9    27.8    27.6    27.5
 2015 244    84    29.4    29.3    29.2    29.0    28.8    28.6    28.5    28.3    28.2    28.0
 2015 245    85    31.3    31.1    30.9    30.7    30.5    30.2    30.0    29.8    29.7    29.5
 2015 246    86    31.7    31.6    31.4    31.1    30.9    30.7    30.5    30.3    30.0    29.9
 2015 247    87    32.0    31.9    31.6    31.4    31.1    30.9    30.7    30.5    30.2    30.0
 2015 248    88    32.1    32.0    31.7    31.5    31.2    31.0    30.8    30.6    30.3    30.1
 2015 249    89    32.2    32.1    31.9    31.6    31.4    31.1    30.9    30.7    30.5    30.2
 2015 250    90    31.9    31.8    31.5    31.3    31.1    30.8    30.6    30.4    30.2    30.0
 2015 251    91    31.4    31.3    31.0    30.8    30.6    30.3    30.1    29.9    29.7    29.5
 2015 252    92    29.8    29.7    29.5    29.3    29.1    29.0    28.8    28.6    28.5    28.3
 2015 253    93    29.2    29.1    28.9    28.7    28.6    28.4    28.2    28.1    27.9    27.8

*DSSAT Cropping System Model Ver. 4.7.5.007 -  MAR 01, 2026 21:19:28
! TAV  =    23.6
! TAMP =     1.8
!               Temperature (oC) by soil depth (cm):
!               Surface    0-10   10-20   20-30   30-40   40-50   50-60   60-70   70-80   80-90
@YEAR DOY   DAS    TS0D    TS1D    TS2D    TS3D    TS4D    TS5D    TS6D    TS7D    TS8D    TS9D    
 2016 132     1    27.9    27.9    27.8    27.6    27.5    27.4    27.3    27.2    27.1    27.0
 2016 133     2    28.2    28.1    28.0    27.9    27.7    27.6    27.5    27.4    27.3    27.2
 2016 134     3    28.4    28.3    28.2    28.1    27.9    27.8    27.7    27.6    27.4    27.3
 2016 135     4    28.6    28.5    28.4    28.3    28.1    28.0    27.9    27.7    27.6    27.5
 2016 136     5    28.2    28.2    28.0    27.9    27.8    27.7    27.5    27.4    27.3    27.2
 2016 137     6    28.0    27.9    27.8    27.6    27.5    27.4    27.3    27.2    27.1    27.0
 2016 138     7    27.6    27.5    27.4    27.3    27.2    27.1    27.0    26.9    26.8    26.8
 2016 139     8    27.1    27.1    27.0    26.9    26.8    26.7    26.6    26.6    26.5    26.4
 2016 140     9    27.1    27.1    27.0    26.9    26.8    26.7    26.6    26.5    26.5    26.4
 2016 141    10    27.6    27.5    27.4    27.3    27.2    27.1    27.0    26.9    26.8    26.7
 2016 142    11    27.6    27.6    27.5    27.4    27.3    27.2    27.1    27.0    26.9    26.8
 2016 143    12    27.7    27.6    27.5    27.4    27.3    27.2    27.1    27.0    26.9    26.8
 2016 144    13    27.0    27.0    26.9    26.8    26.7    26.6    26.5    26.4    26.4    26.3
 2016 145    14    26.4    26.3    26.3    26.2    26.1    26.1    26.0    26.0    25.9    25.8
 2016 146    15    26.2    26.1    26.1    26.0    25.9    25.9    25.8    25.8    25.7    25.7
 2016 147    16    26.1    26.1    26.0    26.0    25.9    25.8    25.8    25.7    25.7    25.6
 2016 148    17    26.0    26.0    25.9    25.9    25.8    25.8    25.7    25.7    25.6    25.6
 2016 149    18    26.9    26.9    26.8    26.7    26.6    26.5    26.4    26.4    26.3    26.2
 2016 150    19    27.0    26.9    26.8    26.7    26.6    26.6    26.5    26.4    26.3    26.3
 2016 151    20    27.0    26.9    26.8    26.7    26.6    26.6    26.5    26.4    26.3    26.2
 2016 152    21    27.1    27.1    27.0    26.9    26.8    26.7    26.6    26.5    26.4    26.4
 2016 153    22    27.5    27.4    27.3    27.2    27.1    27.0    26.9    26.8    26.7    26.6
 2016 154    23    27.4    27.3    27.2    27.1    27.0    26.9    26.8    26.7    26.6    26.5
 2016 155    24    27.4    27.4    27.3    27.2    27.1    27.0    26.9    26.8    26.7    26.6
 2016 156    25    27.5    27.4    27.3    27.2    27.1    27.0    26.9    26.8    26.7    26.6
 2016 157    26    27.7    27.7    27.5    27.4    27.3    27.2    27.1    27.0    26.9    26.8
 2016 158    27    27.8    27.8    27.7    27.5    27.4    27.3    27.2    27.1    27.0    26.9
 2016 159    28    27.9    27.8    27.7    27.6    27.4    27.3    27.2    27.1    27.0    26.9
 2016 160    29    27.7    27.6    27.5    27.4    27.3    27.2    27.1    27.0    26.9    26.8
 2016 161    30    27.2    27.1    27.0    26.9    26.8    26.7    26.6    26.5    26.4    26.4
 2016 162    31    26.7    26.7    26.6    26.5    26.4    26.3    26.3    26.2    26.1    26.0
 2016 163    32    25.6    25.6    25.5    25.5    25.4    25.4    25.4    25.3    25.3    25.2
 2016 164    33    24.7    24.7    24.6    24.6    24.6    24.6    24.6    24.6    24.5    24.5
 2016 165    34    24.6    24.5    24.5    24.5    24.5    24.5    24.5    24.5    24.5    24.4
 2016 166    35    24.7    24.7    24.6    24.6    24.6    24.6    24.6    24.5    24.5    24.5
 2016 167    36    24.4    24.4    24.4    24.4    24.4    24.4    24.4    24.4    24.4    24.3
 2016 168    37    24.8    24.8    24.7    24.7    24.7    24.7    24.6    24.6    24.6    24.6
 2016 169    38    25.5    25.5    25.5    25.4    25.4    25.3    25.3    25.2    25.2    25.1
 2016 170    39    25.9    25.9    25.8    25.7    25.7    25.6    25.6    25.5    25.5    25.4
 2016 171    40    26.2    26.2    26.1    26.0    26.0    25.9    25.8    25.8    25.7    25.7
 2016 172    41    26.3    26.3    26.2    26.1    26.1    26.0    25.9    25.9    25.8    25.7
 2016 173    42    26.5    26.4    26.3    26.3    26.2    26.1    26.0    26.0    25.9    25.8
 2016 174    43    26.5    26.5    26.4    26.3    26.2    26.1    26.1    26.0    25.9    25.8
 2016 175    44    26.5    26.4    26.3    26.2    26.2    26.1    26.0    25.9    25.9    25.8
 2016 176    45    26.5    26.5    26.4    26.3    26.2    26.1    26.1    26.0    25.9    25.9
 2016 177    46    26.5    26.4    26.4    26.3    26.2    26.1    26.0    26.0    25.9    25.8
 2016 178    47    26.3    26.3    26.2    26.1    26.0    26.0    25.9    25.8    25.8    25.7
 2016 179    48    25.9    25.9    25.8    25.8    25.7    25.7    25.6    25.5    25.5    25.4
 2016 180    49    25.6    25.6    25.5    25.5    25.4    25.4    25.3    25.3    25.2    25.2
 2016 181    50    25.2    25.2    25.1    25.1    25.0    25.0    25.0    24.9    24.9    24.9
 2016 182    51    24.8    24.8    24.8    24.7    24.7    24.7    24.7    24.6    24.6    24.6
 2016 183    52    24.9    24.9    24.8    24.8    24.8    24.7    24.7    24.7    24.7    24.6
 2016 184    53    25.0    25.0    24.9    24.9    24.8    24.8    24.8    24.8    24.7    24.7
 2016 185    54    25.2    25.1    25.1    25.1    25.0    25.0    24.9    24.9    24.9    24.8
 2016 186    55    25.2    25.2    25.2    25.1    25.1    25.0    25.0    25.0    24.9    24.9
 2016 187    56    25.5    25.5    25.4    25.4    25.3    25.3    25.2    25.2    25.1    25.1
 2016 188    57    25.6    25.6    25.5    25.5    25.4    25.4    25.3    25.3    25.2    25.2
 2016 189    58    25.9    25.9    25.8    25.7    25.7    25.6    25.5    25.5    25.4    25.4
 2016 190    59    26.1    26.0    25.9    25.9    25.8    25.7    25.7    25.6    25.5    25.5
 2016 191    60    26.6    26.6    26.5    26.4    26.3    26.2    26.1    26.0    26.0    25.9
 2016 192    61    27.2    27.2    27.0    26.9    26.8    26.7    26.6    26.5    26.4    26.4
 2016 193    62    27.7    27.6    27.5    27.4    27.2    27.1    27.0    26.9    26.8    26.7
 2016 194    63    28.1    28.0    27.9    27.7    27.6    27.5    27.3    27.2    27.1    27.0
 2016 195    64    28.4    28.3    28.1    28.0    27.8    27.7    27.5    27.4    27.3    27.1
 2016 196    65    28.4    28.3    28.2    28.0    27.9    27.7    27.6    27.5    27.4    27.2
 2016 197    66    28.4    28.4    28.2    28.0    27.9    27.7    27.6    27.5    27.3    27.2
 2016 198    67    28.4    28.3    28.2    28.0    27.9    27.7    27.6    27.4    27.3    27.2
 2016 199    68    27.8    27.7    27.6    27.5    27.3    27.2    27.1    27.0    26.8    26.7
 2016 200    69    27.3    27.3    27.1    27.0    26.9    26.8    26.7    26.6    26.5    26.4
 2016 201    70    27.1    27.0    26.9    26.8    26.7    26.6    26.5    26.4    26.3    26.2
 2016 202    71    26.7    26.6    26.5    26.4    26.3    26.3    26.2    26.1    26.0    25.9
 2016 203    72    26.4    26.4    26.3    26.2    26.1    26.0    25.9    25.8    25.8    25.7
 2016 204    73    26.8    26.7    26.6    26.5    26.4    26.3    26.2    26.2    26.1    26.0
 2016 205    74    27.2    27.1    27.0    26.9    26.7    26.6    26.5    26.4    26.3    26.2
 2016 206    75    27.4    27.4    27.2    27.1    27.0    26.9    26.8    26.7    26.5    26.4
 2016 207    76    27.6    27.5    27.4    27.3    27.1    27.0    26.9    26.8    26.7    26.6
 2016 208    77    27.7    27.6    27.5    27.4    27.2    27.1    27.0    26.9    26.8    26.6
 2016 209    78    28.0    27.9    27.8    27.6    27.5    27.4    27.2    27.1    27.0    26.9
 2016 210    79    28.2    28.1    27.9    27.8    27.6    27.5    27.3    27.2    27.1    27.0
 2016 211    80    28.1    28.0    27.9    27.7    27.6    27.4    27.3    27.2    27.1    26.9
 2016 212    81    28.0    27.9    27.8    27.6    27.5    27.3    27.2    27.1    27.0    26.9
 2016 213    82    27.7    27.7    27.5    27.4    27.2    27.1    27.0    26.9    26.7    26.6
 2016 214    83    27.3    27.2    27.1    26.9    26.8    26.7    26.6    26.5    26.4    26.3
 2016 215    84    26.9    26.8    26.7    26.6    26.5    26.4    26.3    26.2    26.1    26.0
 2016 216    85    26.6    26.6    26.5    26.4    26.3    26.2    26.1    26.0    25.9    25.8
 2016 217    86    26.8    26.7    26.6    26.5    26.4    26.3    26.2    26.1    26.0    25.9
 2016 218    87    27.2    27.1    27.0    26.8    26.7    26.6    26.5    26.4    26.3    26.2
 2016 219    88    27.6    27.5    27.3    27.2    27.1    26.9    26.8    26.7    26.6    26.5
 2016 220    89    27.9    27.8    27.7    27.5    27.4    27.2    27.1    27.0    26.9    26.8

*DSSAT Cropping System Model Ver. 4.7.5.007 -  MAR 01, 2026 21:19:28
! TAV  =    23.6
! TAMP =     1.8
!               Temperature (oC) by soil depth (cm):
!               Surface    0-10   10-20   20-30   30-40   40-50   50-60   60-70   70-80   80-90
@YEAR DOY   DAS    TS0D    TS1D    TS2D    TS3D    TS4D    TS5D    TS6D    TS7D    TS8D    TS9D    
 2016 154     1    27.6    27.6    27.4    27.3    27.2    27.1    27.0    26.9    26.8    26.7
 2016 155     2    27.4    27.3    27.2    27.1    27.0    26.9    26.8    26.7    26.6    26.5
 2016 156     3    27.3    27.2    27.1    27.0    26.9    26.8    26.7    26.6    26.5    26.5
 2016 157     4    27.5    27.5    27.3    27.2    27.1    27.0    26.9    26.8    26.7    26.7
 2016 158     5    27.8    27.8    27.6    27.5    27.4    27.3    27.2    27.1    27.0    26.9
 2016 159     6    27.9    27.8    27.7    27.6    27.4    27.3    27.2    27.1    27.0    26.9
 2016 160     7    27.7    27.6    27.5    27.4    27.3    27.2    27.1    27.0    26.9    26.8
 2016 161     8    27.2    27.1    27.0    26.9    26.8    26.7    26.6    26.5    26.4    26.4
 2016 162     9    26.7    26.7    26.6    26.5    26.4    26.3    26.2    26.2    26.1    26.0
 2016 163    10    25.6    25.6    25.5    25.5    25.4    25.4    25.4    25.3    25.3    25.2
 2016 164    11    24.7    24.7    24.6    24.6    24.6    24.6    24.6    24.6    24.5    24.5
 2016 165    12    24.5    24.5    24.5    24.5    24.5    24.5    24.5    24.5    24.4    24.4
 2016 166    13    24.7    24.6    24.6    24.6    24.6    24.6    24.6    24.5    24.5    24.5
 2016 167    14    24.4    24.4    24.4    24.4    24.4    24.4    24.4    24.4    24.4    24.3
 2016 168    15    24.8    24.8    24.7    24.7    24.7    24.7    24.7    24.6    24.6    24.6
 2016 169    16    25.5    25.5    25.5    25.4    25.4    25.3    25.3    25.2    25.2    25.2
 2016 170    17    25.9    25.9    25.8    25.8    25.7    25.6    25.6    25.5    25.5    25.4
 2016 171    18    26.2    26.2    26.1    26.0    26.0    25.9    25.8    25.8    25.7    25.6
 2016 172    19    26.3    26.3    26.2    26.1    26.1    26.0    25.9    25.9    25.8    25.7
 2016 173    20    26.5    26.4    26.4    26.3    26.2    26.1    26.0    26.0    25.9    25.8
 2016 174    21    26.5    26.5    26.4    26.3    26.2    26.1    26.0    26.0    25.9    25.8
 2016 175    22    26.5    26.4    26.3    26.2    26.2    26.1    26.0    25.9    25.9    25.8
 2016 176    23    26.5    26.5    26.4    26.3    26.2    26.1    26.1    26.0    25.9    25.9
 2016 177    24    26.5    26.4    26.4    26.3    26.2    26.1    26.0    26.0    25.9    25.8
 2016 178    25    26.3    26.3    26.2    26.1    26.0    26.0    25.9    25.8    25.8    25.7
 2016 179    26    25.9    25.9    25.8    25.8    25.7    25.6    25.6    25.5    25.5    25.4
 2016 180    27    25.6    25.6    25.5    25.5    25.4    25.4    25.3    25.3    25.2    25.2
 2016 181    28    25.2    25.1    25.1    25.0    25.0    25.0    24.9    24.9    24.9    24.8
 2016 182    29    24.8    24.8    24.8    24.7    24.7    24.7    24.6    24.6    24.6    24.6
 2016 183    30    24.9    24.9    24.8    24.8    24.8    24.8    24.7    24.7    24.7    24.6
 2016 184    31    25.0    25.0    24.9    24.9    24.9    24.8    24.8    24.8    24.7    24.7
 2016 185    32    25.2    25.2    25.1    25.1    25.0    25.0    24.9    24.9    24.9    24.8
 2016 186    33    25.3    25.2    25.2    25.1    25.1    25.1    25.0    25.0    24.9    24.9
 2016 187    34    25.5    25.5    25.4    25.4    25.3    25.3    25.2    25.2    25.1    25.1
 2016 188    35    25.6    25.6    25.6    25.5    25.4    25.4    25.3    25.3    25.2    25.2
 2016 189    36    25.9    25.9    25.8    25.7    25.7    25.6    25.5    25.5    25.4    25.4
 2016 190    37    26.1    26.0    26.0    25.9    25.8    25.7    25.7    25.6    25.6    25.5
 2016 191    38    26.7    26.6    26.5    26.4    26.3    26.2    26.1    26.1    26.0    25.9
 2016 192    39    27.3    27.2    27.1    27.0    26.9    26.7    26.6    26.5    26.5    26.4
 2016 193    40    27.7    27.7    27.5    27.4    27.3    27.1    27.0    26.9    26.8    26.7
 2016 194    41    28.1    28.0    27.9    27.8    27.6    27.5    27.4    27.2    27.1    27.0
 2016 195    42    28.4    28.3    28.1    28.0    27.8    27.7    27.5    27.4    27.3    27.2
 2016 196    43    28.4    28.3    28.2    28.0    27.9    27.7    27.6    27.5    27.3    27.2
 2016 197    44    28.4    28.4    28.2    28.0    27.9    27.8    27.6    27.5    27.4    27.2
 2016 198    45    28.4    28.3    28.2    28.0    27.9    27.7    27.6    27.5    27.3    27.2
 2016 199    46    27.8    27.7    27.6    27.4    27.3    27.2    27.0    26.9    26.8    26.7
 2016 200    47    27.3    27.2    27.1    27.0    26.9    26.8    26.6    26.5    26.4    26.4
 2016 201    48    27.1    27.0    26.9    26.8    26.7    26.5    26.4    26.3    26.3    26.2
 2016 202    49    26.7    26.6    26.5    26.4    26.3    26.2    26.1    26.1    26.0    25.9
 2016 203    50    26.4    26.3    26.2    26.1    26.1    26.0    25.9    25.8    25.7    25.7
 2016 204    51    26.8    26.8    26.6    26.5    26.4    26.3    26.2    26.1    26.1    26.0
 2016 205    52    27.2    27.1    27.0    26.9    26.8    26.7    26.6    26.5    26.4    26.3
 2016 206    53    27.5    27.4    27.3    27.1    27.0    26.9    26.8    26.7    26.6    26.5
 2016 207    54    27.6    27.6    27.4    27.3    27.1    27.0    26.9    26.8    26.7    26.6
 2016 208    55    27.7    27.6    27.5    27.3    27.2    27.1    27.0    26.8    26.7    26.6
 2016 209    56    28.0    28.0    27.8    27.7    27.5    27.4    27.3    27.1    27.0    26.9
 2016 210    57    28.2    28.1    27.9    27.8    27.6    27.5    27.4    27.2    27.1    27.0
 2016 211    58    28.1    28.0    27.9    27.7    27.6    27.4    27.3    27.2    27.0    26.9
 2016 212    59    28.0    27.9    27.8    27.6    27.5    27.3    27.2    27.1    27.0    26.9
 2016 213    60    27.7    27.6    27.5    27.4    27.2    27.1    27.0    26.9    26.7    26.6
 2016 214    61    27.2    27.2    27.0    26.9    26.8    26.7    26.6    26.5    26.4    26.3
 2016 215    62    26.8    26.8    26.7    26.5    26.4    26.3    26.2    26.1    26.0    26.0
 2016 216    63    26.6    26.6    26.5    26.4    26.3    26.2    26.1    26.0    25.9    25.8
 2016 217    64    26.8    26.7    26.6    26.5    26.4    26.3    26.2    26.1    26.0    25.9
 2016 218    65    27.2    27.1    27.0    26.9    26.7    26.6    26.5    26.4    26.3    26.2
 2016 219    66    27.6    27.5    27.4    27.2    27.1    27.0    26.9    26.8    26.6    26.5
 2016 220    67    28.0    27.9    27.7    27.6    27.4    27.3    27.2    27.0    26.9    26.8
 2016 221    68    28.4    28.3    28.1    27.9    27.8    27.6    27.5    27.3    27.2    27.1
 2016 222    69    28.8    28.7    28.5    28.4    28.2    28.0    27.9    27.7    27.5    27.4
 2016 223    70    29.1    29.0    28.8    28.6    28.4    28.2    28.1    27.9    27.8    27.6
 2016 224    71    28.9    28.8    28.7    28.5    28.3    28.1    28.0    27.8    27.6    27.5
 2016 225    72    28.9    28.8    28.6    28.4    28.3    28.1    27.9    27.8    27.6    27.5
 2016 226    73    28.9    28.8    28.6    28.4    28.2    28.1    27.9    27.8    27.6    27.5
 2016 227    74    28.9    28.8    28.6    28.4    28.2    28.0    27.9    27.7    27.6    27.4
 2016 228    75    29.2    29.1    28.9    28.7    28.5    28.3    28.1    28.0    27.8    27.7
 2016 229    76    28.2    28.1    27.9    27.8    27.6    27.5    27.3    27.2    27.1    26.9
 2016 230    77    28.8    28.7    28.5    28.4    28.2    28.0    27.9    27.7    27.6    27.4
 2016 231    78    29.7    29.6    29.3    29.1    28.9    28.8    28.6    28.4    28.2    28.1
 2016 232    79    30.2    30.0    29.8    29.6    29.4    29.1    28.9    28.8    28.6    28.4
 2016 233    80    30.2    30.0    29.8    29.6    29.4    29.1    28.9    28.8    28.6    28.4
 2016 234    81    30.2    30.1    29.9    29.6    29.4    29.2    29.0    28.8    28.6    28.4
 2016 235    82    28.7    28.6    28.4    28.2    28.1    27.9    27.7    27.6    27.4    27.3
 2016 236    83    27.6    27.6    27.4    27.3    27.1    27.0    26.9    26.7    26.6    26.5
 2016 237    84    27.1    27.1    26.9    26.8    26.7    26.5    26.4    26.3    26.2    26.1
 2016 238    85    26.7    26.6    26.5    26.4    26.3    26.1    26.0    25.9    25.9    25.8
 2016 239    86    27.9    27.8    27.7    27.5    27.3    27.2    27.1    26.9    26.8    26.7
 2016 240    87    29.1    29.0    28.8    28.6    28.4    28.2    28.0    27.9    27.7    27.5
 2016 241    88    29.5    29.4    29.2    29.0    28.7    28.5    28.3    28.2    28.0    27.8
 2016 242    89    29.5    29.3    29.1    28.9    28.7    28.5    28.3    28.1    27.9    27.7

*DSSAT Cropping System Model Ver. 4.7.5.007 -  MAR 01, 2026 21:19:28
! TAV  =    23.6
! TAMP =     1.8
!               Temperature (oC) by soil depth (cm):
!               Surface    0-10   10-20   20-30   30-40   40-50   50-60   60-70   70-80   80-90
@YEAR DOY   DAS    TS0D    TS1D    TS2D    TS3D    TS4D    TS5D    TS6D    TS7D    TS8D    TS9D    
 2017 108     1    28.6    28.5    28.3    28.1    28.0    27.8    27.6    27.5    27.4    27.2
 2017 109     2    28.5    28.4    28.2    28.0    27.9    27.7    27.6    27.4    27.3    27.2
 2017 110     3    28.3    28.2    28.0    27.9    27.7    27.6    27.4    27.3    27.2    27.0
 2017 111     4    27.0    27.0    26.9    26.8    26.7    26.6    26.5    26.4    26.3    26.2
 2017 112     5    25.8    25.8    25.8    25.7    25.7    25.6    25.6    25.5    25.5    25.4
 2017 113     6    25.1    25.1    25.1    25.0    25.0    25.0    25.0    24.9    24.9    24.9
 2017 114     7    24.9    24.9    24.9    24.8    24.8    24.8    24.8    24.8    24.7    24.7
 2017 115     8    24.9    24.9    24.9    24.9    24.8    24.8    24.8    24.8    24.8    24.7
 2017 116     9    25.6    25.6    25.6    25.5    25.5    25.4    25.4    25.3    25.3    25.2
 2017 117    10    26.2    26.2    26.1    26.0    26.0    25.9    25.8    25.8    25.7    25.6
 2017 118    11    26.2    26.1    26.1    26.0    25.9    25.9    25.8    25.8    25.7    25.6
 2017 119    12    26.1    26.0    26.0    25.9    25.9    25.8    25.7    25.7    25.6    25.6
 2017 120    13    25.6    25.6    25.5    25.5    25.4    25.4    25.3    25.3    25.3    25.2
 2017 121    14    25.1    25.1    25.1    25.1    25.0    25.0    25.0    24.9    24.9    24.9
 2017 122    15    25.0    25.0    25.0    25.0    24.9    24.9    24.9    24.9    24.8    24.8
 2017 123    16    24.8    24.8    24.8    24.8    24.8    24.7    24.7    24.7    24.7    24.7
 2017 124    17    24.6    24.6    24.6    24.6    24.6    24.6    24.6    24.6    24.5    24.5
 2017 125    18    24.8    24.8    24.8    24.8    24.8    24.7    24.7    24.7    24.7    24.7
 2017 126    19    25.1    25.1    25.0    25.0    25.0    25.0    24.9    24.9    24.9    24.9
 2017 127    20    25.3    25.2    25.2    25.2    25.1    25.1    25.1    25.0    25.0    25.0
 2017 128    21    25.8    25.8    25.8    25.7    25.6    25.6    25.5    25.5    25.4    25.4
 2017 129    22    26.1    26.0    26.0    25.9    25.8    25.8    25.7    25.6    25.6    25.5
 2017 130    23    25.9    25.9    25.8    25.8    25.7    25.6    25.6    25.5    25.5    25.4
 2017 131    24    26.2    26.1    26.0    26.0    25.9    25.8    25.8    25.7    25.6    25.6
 2017 132    25    26.1    26.1    26.0    25.9    25.9    25.8    25.7    25.7    25.6    25.5
 2017 133    26    26.1    26.0    26.0    25.9    25.8    25.8    25.7    25.6    25.6    25.5
 2017 134    27    26.1    26.1    26.0    25.9    25.9    25.8    25.7    25.7    25.6    25.5
 2017 135    28    26.1    26.1    26.0    25.9    25.9    25.8    25.7    25.7    25.6    25.5
 2017 136    29    26.0    26.0    25.9    25.9    25.8    25.7    25.7    25.6    25.5    25.5
 2017 137    30    26.1    26.0    25.9    25.9    25.8    25.7    25.7    25.6    25.6    25.5
 2017 138    31    26.1    26.0    26.0    25.9    25.8    25.8    25.7    25.6    25.6    25.5
 2017 139    32    25.8    25.7    25.7    25.6    25.6    25.5    25.5    25.4    25.4    25.3
 2017 140    33    24.6    24.6    24.6    24.6    24.6    24.6    24.6    24.5    24.5    24.5
 2017 141    34    24.1    24.1    24.1    24.1    24.1    24.1    24.1    24.1    24.2    24.2
 2017 142    35    24.2    24.2    24.2    24.2    24.2    24.2    24.2    24.2    24.2    24.2
 2017 143    36    24.2    24.2    24.2    24.2    24.2    24.2    24.2    24.2    24.2    24.2
 2017 144    37    24.5    24.5    24.5    24.5    24.5    24.5    24.5    24.5    24.5    24.5
 2017 145    38    25.7    25.7    25.6    25.6    25.5    25.5    25.4    25.4    25.3    25.3
 2017 146    39    26.1    26.1    26.0    25.9    25.9    25.8    25.7    25.7    25.6    25.5
 2017 147    40    25.8    25.8    25.7    25.7    25.6    25.5    25.5    25.4    25.4    25.3
 2017 148    41    25.3    25.3    25.3    25.2    25.2    25.1    25.1    25.1    25.0    25.0
 2017 149    42    24.9    24.9    24.9    24.9    24.8    24.8    24.8    24.8    24.7    24.7
 2017 150    43    24.8    24.8    24.8    24.7    24.7    24.7    24.7    24.7    24.6    24.6
 2017 151    44    24.9    24.9    24.8    24.8    24.8    24.8    24.7    24.7    24.7    24.7
 2017 152    45    24.6    24.6    24.6    24.5    24.5    24.5    24.5    24.5    24.5    24.5
 2017 153    46    24.1    24.1    24.1    24.1    24.1    24.1    24.2    24.2    24.2    24.2
 2017 154    47    24.2    24.2    24.2    24.2    24.2    24.2    24.2    24.2    24.2    24.2
 2017 155    48    24.5    24.5    24.4    24.4    24.4    24.4    24.4    24.4    24.4    24.4
 2017 156    49    24.7    24.7    24.7    24.7    24.6    24.6    24.6    24.6    24.6    24.5
 2017 157    50    25.4    25.4    25.3    25.3    25.2    25.2    25.1    25.1    25.0    25.0
 2017 158    51    26.1    26.1    26.0    25.9    25.8    25.8    25.7    25.6    25.6    25.5
 2017 159    52    26.4    26.3    26.2    26.1    26.1    26.0    25.9    25.8    25.7    25.7
 2017 160    53    26.0    26.0    25.9    25.8    25.8    25.7    25.6    25.6    25.5    25.4
 2017 161    54    25.0    25.0    24.9    24.9    24.9    24.8    24.8    24.8    24.7    24.7
 2017 162    55    24.5    24.5    24.5    24.5    24.4    24.4    24.4    24.4    24.4    24.4
 2017 163    56    24.5    24.5    24.5    24.5    24.5    24.4    24.4    24.4    24.4    24.4
 2017 164    57    24.4    24.4    24.3    24.3    24.3    24.3    24.3    24.3    24.3    24.3
 2017 165    58    24.6    24.6    24.5    24.5    24.5    24.5    24.5    24.5    24.4    24.4
 2017 166    59    25.1    25.1    25.1    25.0    25.0    24.9    24.9    24.9    24.8    24.8
 2017 167    60    25.2    25.1    25.1    25.0    25.0    24.9    24.9    24.9    24.8    24.8
 2017 168    61    24.8    24.8    24.8    24.7    24.7    24.7    24.6    24.6    24.6    24.6
 2017 169    62    24.5    24.5    24.5    24.5    24.4    24.4    24.4    24.4    24.4    24.4
 2017 170    63    24.2    24.2    24.2    24.2    24.2    24.2    24.2    24.2    24.2    24.2
 2017 171    64    24.1    24.1    24.1    24.1    24.1    24.1    24.1    24.1    24.1    24.1
 2017 172    65    24.1    24.1    24.1    24.1    24.1    24.1    24.1    24.1    24.1    24.1
 2017 173    66    23.8    23.8    23.8    23.8    23.8    23.8    23.8    23.8    23.9    23.9
 2017 174    67    23.3    23.3    23.4    23.4    23.4    23.5    23.5    23.5    23.5    23.6
 2017 175    68    23.0    23.0    23.1    23.1    23.1    23.2    23.2    23.3    23.3    23.3
 2017 176    69    22.7    22.7    22.8    22.8    22.9    22.9    23.0    23.0    23.1    23.1
 2017 177    70    22.3    22.4    22.5    22.5    22.6    22.7    22.7    22.8    22.9    22.9
 2017 178    71    22.3    22.4    22.5    22.5    22.6    22.7    22.8    22.8    22.9    22.9
 2017 179    72    22.4    22.5    22.6    22.6    22.7    22.8    22.8    22.9    22.9    23.0
 2017 180    73    22.5    22.5    22.6    22.6    22.7    22.8    22.8    22.9    22.9    23.0
 2017 181    74    22.5    22.5    22.6    22.6    22.7    22.8    22.8    22.9    22.9    23.0
 2017 182    75    22.7    22.8    22.8    22.9    22.9    23.0    23.0    23.1    23.1    23.2
 2017 183    76    22.9    22.9    23.0    23.0    23.1    23.1    23.2    23.2    23.2    23.3
 2017 184    77    22.6    22.6    22.7    22.7    22.8    22.8    22.9    22.9    23.0    23.0
 2017 185    78    21.9    21.9    22.0    22.1    22.2    22.3    22.4    22.5    22.5    22.6
 2017 186    79    21.4    21.4    21.6    21.7    21.8    21.9    22.0    22.1    22.2    22.3
 2017 187    80    20.9    20.9    21.1    21.2    21.4    21.5    21.6    21.8    21.9    22.0
 2017 188    81    20.5    20.6    20.7    20.9    21.1    21.2    21.4    21.5    21.6    21.8
 2017 189    82    20.6    20.6    20.8    21.0    21.2    21.3    21.4    21.6    21.7    21.8
 2017 190    83    21.1    21.1    21.3    21.4    21.6    21.7    21.8    22.0    22.1    22.2
 2017 191    84    21.6    21.7    21.8    21.9    22.0    22.1    22.2    22.3    22.3    22.4
 2017 192    85    22.2    22.2    22.3    22.4    22.4    22.5    22.6    22.7    22.7    22.8
 2017 193    86    22.6    22.7    22.7    22.8    22.8    22.9    22.9    23.0    23.0    23.1
 2017 194    87    23.0    23.0    23.1    23.1    23.1    23.2    23.2    23.3    23.3    23.3
 2017 195    88    23.3    23.3    23.3    23.3    23.4    23.4    23.4    23.4    23.5    23.5
 2017 196    89    23.3    23.3    23.3    23.4    23.4    23.4    23.4    23.5    23.5    23.5
 2017 197    90    23.2    23.2    23.3    23.3    23.3    23.4    23.4    23.4    23.4    23.5
 2017 198    91    23.1    23.2    23.2    23.2    23.2    23.3    23.3    23.3    23.4    23.4
