*Soil Inorganic Nitrogen daily output file

*DSSAT Cropping System Model Ver. 4.7.5.007 -  MAR 01, 2026 21:19:28
!                                                                                                                              NO3 (ppm) at soil dep. (cm):                                            NH4 (ppm) at soil dep. (cm):                                            Total Inorganic N @dep(ppm):
!                                                                                                                              0-10   10-20   20-30   30-40   40-50   50-60   60-70   70-80   80-90    0-10   10-20   20-30   30-40   40-50   50-60   60-70   70-80   80-90    0-10   10-20   20-30   30-40   40-50   50-60   60-70   70-80   80-90
@YEAR DOY   DAS  NAPC  NI#M    NIAD    NITD    NHTD    NMNC    NITC    NDNC    NIMC    AMLC   NNMNC    NUCM    NLCC    TDFC    NI1D    NI2D    NI3D    NI4D    NI5D    NI6D    NI7D    NI8D    NI9D    NH1D    NH2D    NH3D    NH4D    NH5D    NH6D    NH7D    NH8D    NH9D    NT1D    NT2D    NT3D    NT4D    NT5D    NT6D    NT7D    NT8D    NT9D    
 2015 102     0     0     0   100.1    90.3     9.8    0.00    0.00    0.00    0.00    0.00    0.00    0.00    0.00    0.00    5.50     5.5     5.5    5.50    5.50    5.50    5.50    5.50    5.50    0.60    0.60    0.60    0.60    0.60    0.60    0.60    0.60    0.60    6.10    6.10    6.10    6.10    6.10    6.10    6.10    6.10    6.10
 2015 103     1    20     1   114.7    92.0    22.7    0.53    1.77    0.00    0.00    0.00    0.53    0.00    0.00    0.00    3.77     5.3     6.1    6.32    6.26    5.81    5.66    5.63    5.61    8.54    0.53    0.53    0.52    0.52    0.52    0.52    0.52    0.52   12.31    5.82    6.59    6.84    6.78    6.33    6.18    6.15    6.13
 2015 104     2    20     1   119.2    93.1    26.1    1.03    2.89    0.00    0.00    0.00    1.03    0.00    0.00    0.00    3.94     5.0     6.0    6.33    6.30    6.24    5.84    5.74    5.67   10.53    0.54    0.54    0.53    0.53    0.52    0.52    0.46    0.46   14.47    5.57    6.51    6.86    6.84    6.76    6.36    6.20    6.13
 2015 105     3    20     1   120.9    94.3    26.5    1.53    4.10    0.00    0.00    0.00    1.53    0.00    0.00    0.00    4.52     5.0     5.9    6.30    6.29    6.24    5.97    5.83    5.77   10.57    0.76    0.55    0.55    0.55    0.53    0.52    0.46    0.41   15.09    5.73    6.41    6.84    6.83    6.77    6.48    6.29    6.18
 2015 106     4    20     1   121.8    95.8    26.0    2.04    5.59    0.00    0.00    0.00    2.04    0.00    0.06    0.00    4.56     4.8     5.8    6.32    6.34    6.32    6.32    6.19    5.94   10.13    0.86    0.57    0.56    0.56    0.54    0.52    0.46    0.37   14.68    5.63    6.35    6.88    6.90    6.86    6.85    6.65    6.31
 2015 107     5    20     1   122.3    96.7    25.6    2.53    6.65    0.00    0.00    0.00    2.53    0.00    0.20    0.00    5.12     4.8     5.7    6.28    6.31    6.30    6.31    6.24    6.05    9.74    0.91    0.60    0.57    0.57    0.56    0.53    0.47    0.38   14.86    5.68    6.28    6.85    6.88    6.85    6.84    6.71    6.43
 2015 108     6    20     1   120.0    95.1    24.9    3.03    7.92    0.48    0.00    0.00    3.03    0.00    2.58    0.00    4.40     4.4     5.4    6.15    6.29    6.31    6.32    6.40    6.48    9.24    0.93    0.62    0.58    0.58    0.57    0.55    0.48    0.39   13.63    5.33    6.03    6.74    6.87    6.88    6.86    6.88    6.87
 2015 109     7    20     1   117.0    92.6    24.3    3.51    8.92    1.08    0.00    0.00    3.51    0.10    5.40    0.00    4.95     4.3     5.1    5.88    6.04    6.07    6.08    6.15    6.27    8.83    0.94    0.64    0.60    0.59    0.58    0.56    0.50    0.40   13.77    5.20    5.78    6.47    6.63    6.65    6.64    6.64    6.67
 2015 110     8    20     1   116.7    93.3    23.4    4.03   10.32    1.44    0.00    0.00    4.03    0.23    5.69    0.00    5.22     4.5     5.2    5.89    6.01    6.03    6.03    6.09    6.23    8.27    0.93    0.64    0.60    0.60    0.58    0.56    0.50    0.41   13.50    5.39    5.89    6.50    6.60    6.61    6.59    6.59    6.64
 2015 111     9    20     1   116.4    93.4    23.0    4.54   11.19    1.92    0.00    0.00    4.54    0.30    5.95    0.00    4.88     4.4     5.2    6.01    6.25    6.19    6.06    6.06    6.17    8.01    0.93    0.65    0.61    0.60    0.59    0.57    0.51    0.42   12.89    5.33    5.86    6.62    6.85    6.78    6.62    6.57    6.60
 2015 112    10    20     1   113.9    91.4    22.5    5.05   12.20    2.49    0.00    0.00    5.05    0.41    8.30    0.00    5.33     4.3     5.0    5.74    5.99    5.99    5.92    5.94    6.04    7.64    0.93    0.66    0.62    0.61    0.59    0.57    0.52    0.43   12.97    5.20    5.63    6.36    6.60    6.59    6.49    6.45    6.47
 2015 113    11    20     1   113.7    92.1    21.6    5.57   13.52    2.81    0.00    0.00    5.57    0.65    8.49    0.00    4.51     4.2     5.0    5.80    6.14    6.28    6.34    6.20    6.09    7.14    0.92    0.66    0.62    0.61    0.59    0.57    0.52    0.44   11.65    5.12    5.63    6.42    6.75    6.87    6.91    6.72    6.53
 2015 114    12    20     1   113.3    92.0    21.3    6.07   14.29    3.42    0.00    0.00    6.07    0.72    8.70    0.00    4.85     4.2     4.9    5.73    6.06    6.20    6.26    6.20    6.12    6.90    0.92    0.67    0.63    0.62    0.60    0.58    0.52    0.44   11.75    5.11    5.55    6.36    6.68    6.80    6.84    6.72    6.57
 2015 115    13    20     1   110.8    90.1    20.7    6.58   15.29    3.95    0.00    0.00    6.58    0.88   11.01    0.00    5.33     4.1     4.7    5.50    5.82    5.96    6.03    6.01    5.99    6.53    0.92    0.67    0.64    0.63    0.61    0.59    0.53    0.45   11.86    5.02    5.38    6.14    6.45    6.57    6.62    6.54    6.44
 2015 116    14    20     1   110.6    90.7    19.8    7.10   16.59    4.25    0.00    0.00    7.10    1.23   11.12    0.00    5.73     4.2     4.7    5.47    5.78    5.92    5.98    6.00    6.00    6.03    0.90    0.67    0.64    0.63    0.61    0.59    0.53    0.45   11.77    5.14    5.36    6.11    6.41    6.53    6.57    6.53    6.45
 2015 117    15    20     1   110.5    91.0    19.4    7.62   17.48    4.60    0.00    0.00    7.62    1.40   11.22    0.00    6.00     4.3     4.7    5.45    5.75    5.88    5.95    5.98    6.01    5.82    0.89    0.66    0.63    0.63    0.61    0.59    0.53    0.45   11.82    5.18    5.36    6.09    6.38    6.50    6.54    6.52    6.46
 2015 118    16    60     2   148.6    91.3    57.3    8.15   18.59    4.86    0.00    0.12    8.15    1.69   11.63    0.00    4.37     4.1     4.7    5.55    5.97    6.21    6.33    6.44    6.41   27.35    0.88    0.65    0.63    0.62    0.61    0.59    0.53    0.46   31.72    4.98    5.36    6.18    6.60    6.82    6.92    6.97    6.86
 2015 119    17    60     2   146.2    89.4    56.8    8.63   20.27    5.52    0.00    0.29    8.63    1.81   14.53    0.00    5.23     3.9     4.5    5.30    5.70    5.95    6.08    6.18    6.19   27.03    0.88    0.65    0.64    0.63    0.62    0.60    0.55    0.47   32.26    4.83    5.15    5.94    6.34    6.57    6.68    6.72    6.66
 2015 120    18    60     2   145.7    91.5    54.2    9.15   23.26    5.90    0.00    0.41    9.15    2.28   14.76    0.00    5.99     4.1     4.7    5.48    5.73    5.92    6.03    6.12    6.17   25.56    0.87    0.65    0.64    0.63    0.62    0.60    0.55    0.47   31.55    5.00    5.34    6.11    6.37    6.54    6.63    6.67    6.65
 2015 121    19    60     2   143.5    90.7    52.8    9.58   25.04    6.33    0.00    0.54    9.58    2.29   16.96    0.00    6.83     4.0     4.5    5.25    5.55    5.76    5.89    5.98    6.05   24.66    0.90    0.66    0.65    0.64    0.63    0.61    0.56    0.48   31.49    4.94    5.16    5.89    6.19    6.39    6.49    6.54    6.53
 2015 122    20    60     2   141.6    91.3    50.3   10.01   27.44    6.56    0.00    0.68   10.01    2.96   18.19    0.00    8.04     4.0     4.4    5.11    5.43    5.66    5.79    5.88    5.95   23.26    0.89    0.66    0.65    0.64    0.62    0.61    0.56    0.48   31.31    4.89    5.04    5.76    6.07    6.28    6.39    6.44    6.44
 2015 123    21    60     2   140.2    92.9    47.3   10.43   30.20    6.66    0.00    0.81   10.43    4.11   18.72    0.00    9.42     3.9     4.3    5.03    5.38    5.61    5.74    5.82    5.90   21.58    0.86    0.65    0.64    0.63    0.62    0.60    0.56    0.49   31.01    4.81    4.95    5.68    6.01    6.23    6.34    6.38    6.39
 2015 124    22    60     2   139.4    95.5    44.0   10.85   33.25    6.68    0.00    0.93   10.85    5.12   18.72    0.00   10.24     4.5     4.3    5.03    5.38    5.61    5.72    5.80    5.92   19.92    0.77    0.64    0.63    0.63    0.61    0.60    0.55    0.45   30.15    5.29    4.98    5.67    6.01    6.22    6.32    6.36    6.36
 2015 125    23    60     2   139.0    96.4    42.6   11.25   34.79    6.84    0.00    1.01   11.25    5.71   18.72    0.00    9.72     5.1     4.5    5.08    5.41    5.68    5.77    5.84    5.94   19.37    0.76    0.62    0.62    0.62    0.56    0.55    0.51    0.41   29.08    5.83    5.16    5.70    6.03    6.24    6.31    6.35    6.36
 2015 126    24    60     2   138.7    98.0    40.7   11.72   36.87    7.02    0.00    1.12   11.72    6.25   18.72    0.00    7.95     5.5     5.0    5.45    5.92    6.16    5.97    5.94    5.99   18.50    0.76    0.61    0.61    0.61    0.50    0.49    0.46    0.38   26.45    6.23    5.59    6.06    6.53    6.67    6.46    6.40    6.37
 2015 127    25    60     2   138.4    99.0    39.4   12.17   38.35    7.35    0.00    1.19   12.17    6.53   18.72    0.00    8.31     5.5     4.9    5.40    5.87    6.21    6.10    6.06    6.05   17.82    0.77    0.62    0.62    0.62    0.51    0.49    0.42    0.35   26.13    6.25    5.53    6.03    6.48    6.72    6.59    6.48    6.40
 2015 128    26    60     2   136.2    98.7    37.5   12.63   40.25    7.61    0.00    1.30   12.63    7.25   20.34    0.00    9.13     5.3     4.8    5.21    5.63    6.01    6.00    6.05    6.14   16.75    0.77    0.63    0.63    0.63    0.52    0.49    0.38    0.32   25.89    6.10    5.38    5.84    6.25    6.53    6.49    6.44    6.46
 2015 129    27    60     2   134.0    99.1    34.9   13.10   42.52    7.79    0.00    1.39   13.10    8.75   21.20    0.00   10.06     5.2     4.6    5.09    5.49    5.89    5.95    6.09    6.18   15.36    0.75    0.62    0.63    0.63    0.52    0.49    0.35    0.30   25.42    5.91    5.24    5.72    6.11    6.41    6.45    6.44    6.48
 2015 130    28    60     2   131.7    99.8    31.9   13.58   44.94    7.86    0.00    1.47   13.58   11.02   21.54    0.00   10.96     5.0     4.5    5.00    5.41    5.83    5.94    6.14    6.22   13.76    0.72    0.60    0.62    0.62    0.53    0.49    0.33    0.28   24.71    5.68    5.10    5.63    6.03    6.35    6.43    6.46    6.51
 2015 131    29    60     2   129.5   102.6    26.9   14.06   49.30    7.89    0.00    1.56   14.06   13.58   21.54    0.00    9.62     5.9     5.3    5.52    5.72    5.93    6.04    6.17    6.22   11.16    0.61    0.57    0.61    0.62    0.52    0.44    0.30    0.27   20.79    6.54    5.84    6.12    6.34    6.46    6.49    6.47    6.49
 2015 132    30    60     2   127.6   101.3    26.3   14.50   50.18    8.09    0.00    1.59   14.50   13.91   23.33    0.00    9.58     5.9     5.1    5.33    5.54    5.81    6.00    6.19    6.29   10.82    0.62    0.58    0.62    0.62    0.53    0.45    0.29    0.26   20.40    6.47    5.69    5.94    6.16    6.34    6.45    6.48    6.54
 2015 133    31    60     2   126.8   101.6    25.1   14.94   51.33    8.21    0.00    1.64   14.94   15.04   23.33    0.00    9.77     5.8     5.0    5.29    5.54    5.87    6.06    6.24    6.30   10.18    0.62    0.58    0.62    0.62    0.53    0.45    0.27    0.25   19.95    6.42    5.60    5.90    6.17    6.40    6.50    6.51    6.55
 2015 134    32    60     2   125.2   101.6    23.6   15.37   52.54    8.32    0.00    1.70   15.37   16.81   23.33    0.00    8.67     6.2     5.4    5.40    5.58    5.92    6.11    6.29    6.31    9.35    0.61    0.57    0.62    0.62    0.53    0.45    0.26    0.24   18.02    6.80    5.94    6.02    6.20    6.45    6.56    6.55    6.55
 2015 135    33    60     2   124.9   101.9    23.0   15.79   53.30    8.48    0.00    1.76   15.79   17.34   23.33    0.00    7.14     6.2     5.6    5.55    5.76    6.26    6.60    6.49    6.40    9.01    0.62    0.58    0.62    0.62    0.53    0.45    0.25    0.23   16.15    6.77    6.15    6.17    6.38    6.79    7.06    6.74    6.63
 2015 136    34    60     2   121.5    99.0    22.5   16.19   53.91    8.96    0.00    1.81   16.19   17.96   25.94    0.00    7.14     5.9     5.4    5.38    5.55    5.98    6.33    6.36    6.36    8.65    0.62    0.59    0.63    0.63    0.54    0.47    0.27    0.24   15.78    6.51    5.95    6.01    6.18    6.52    6.80    6.62    6.61
 2015 137    35    60     2   118.2    96.9    21.4   16.62   54.83    9.25    0.00    1.85   16.62   19.76   27.56    0.00    7.19     5.6     5.2    5.23    5.40    5.81    6.15    6.27    6.37    7.98    0.61    0.58    0.63    0.64    0.55    0.48    0.28    0.24   15.16    6.21    5.74    5.86    6.04    6.36    6.63    6.55    6.60
 2015 138    36    60     2   114.4    94.9    19.5   17.06   55.95    9.40    0.00    1.92   17.06   23.02   28.34    0.00    7.25     5.2     4.9    5.10    5.30    5.70    6.05    6.24    6.38    6.97    0.57    0.56    0.61    0.63    0.55    0.48    0.29    0.23   14.22    5.79    5.46    5.71    5.93    6.25    6.53    6.52    6.61
 2015 139    37   100     3   146.4    94.4    52.0   17.52   57.98    9.46    0.00    4.55   17.52   27.26   28.34    0.00    7.31     5.2     4.7    4.99    5.26    5.69    6.04    6.26    6.42   25.60    0.47    0.52    0.59    0.62    0.55    0.48    0.30    0.22   32.91    5.65    5.23    5.59    5.89    6.24    6.52    6.56    6.64
 2015 140    38   100     3   144.0    94.7    49.4   17.98   59.74    9.51    0.00    6.43   17.98   29.20   28.34    0.00    7.90     5.1     4.5    4.89    5.23    5.68    6.03    6.28    6.45   24.17    0.49    0.50    0.57    0.61    0.55    0.49    0.31    0.22   32.07    5.54    5.01    5.46    5.84    6.23    6.52    6.59    6.67
 2015 141    39   100     3   139.5    94.4    45.1   18.45   62.08    9.55    0.00    7.92   18.45   32.39   28.93    0.00    8.67     4.8     4.2    4.74    5.16    5.64    5.99    6.26    6.47   21.74    0.51    0.50    0.55    0.60    0.55    0.49    0.32    0.21   30.42    5.29    4.73    5.29    5.76    6.19    6.48    6.58    6.68
 2015 142    40   100     3   135.6    95.6    40.0   18.94   65.15    9.57    0.00    8.99   18.94   35.83   28.93    0.00    7.61     5.1     4.8    5.19    5.29    5.68    6.00    6.27    6.49   18.97    0.52    0.46    0.48    0.59    0.55    0.49    0.33    0.21   26.58    5.66    5.29    5.67    5.88    6.23    6.49    6.59    6.70
 2015 143    41   100     3   132.3    94.8    37.5   19.40   66.64    9.60    0.00    9.97   19.40   37.06   30.47    0.00    8.01     5.0     4.7    5.02    5.16    5.61    5.95    6.23    6.49   17.47    0.53    0.48    0.49    0.58    0.55    0.49    0.34    0.20   25.48    5.52    5.15    5.51    5.75    6.15    6.44    6.56    6.69
 2015 144    42   100     3   127.6    94.0    33.7   19.88   68.58    9.70    0.00   10.75   19.88   40.48   31.30    0.00    8.37     4.7     4.4    4.86    5.08    5.58    5.94    6.21    6.50   15.32    0.52    0.50    0.50    0.57    0.54    0.49    0.34    0.20   23.70    5.20    4.94    5.36    5.65    6.13    6.42    6.55    6.70
 2015 145    43   100     3   123.0    93.6    29.4   20.37   70.80    9.74    0.00   11.46   20.37   44.64   31.54    0.00    8.81     4.4     4.2    4.74    5.04    5.59    5.94    6.25    6.52   12.94    0.51    0.50    0.50    0.56    0.54    0.49    0.32    0.20   21.75    4.87    4.74    5.24    5.61    6.13    6.43    6.57    6.72
 2015 146    44   100     3   118.7    95.1    23.6   20.87   74.78    9.74    0.00   12.06   20.87   48.82   31.54    0.00    7.35     4.8     4.7    5.11    5.52    5.89    6.10    6.32    6.53    9.76    0.46    0.50    0.50    0.55    0.53    0.44    0.30    0.20   17.10    5.26    5.17    5.61    6.07    6.43    6.54    6.62    6.73
 2015 147    45   100     3   115.4    93.1    22.3   21.36   75.69    9.95    0.00   12.47   21.36   49.97   33.50    0.00    7.40     4.6     4.5    4.90    5.29    5.71    6.01    6.27    6.53    8.97    0.48    0.52    0.52    0.56    0.54    0.44    0.31    0.19   16.37    5.11    4.97    5.42    5.85    6.25    6.45    6.57    6.72
 2015 148    46   100     3   110.3    90.5    19.8   21.88   76.97   10.08    0.00   12.77   21.88   54.14   34.57    0.00    7.19     4.2     4.1    4.70    5.13    5.61    5.97    6.28    6.54    7.53    0.49    0.51    0.51    0.56    0.54    0.44    0.29    0.19   14.73    4.70    4.66    5.21    5.69    6.15    6.42    6.57    6.73
 2015 149    47   100     3   105.4    88.3    17.1   22.40   78.31   10.15    0.00   12.98   22.40   58.81   35.03    0.00    6.92     3.8     3.9    4.53    5.03    5.56    5.97    6.31    6.56    6.06    0.50    0.51    0.51    0.56    0.54    0.45    0.27    0.19   12.98    4.30    4.38    5.04    5.59    6.10    6.42    6.58    6.74
 2015 150    48   100     3   101.5    87.4    14.1   22.92   80.39   10.19    0.00   13.14   22.92   62.91   35.17    0.00    7.14     3.5     3.6    4.40    4.96    5.55    5.98    6.35    6.58    4.42    0.46    0.50    0.51    0.55    0.54    0.45    0.25    0.19   11.57    3.97    4.11    4.91    5.52    6.09    6.43    6.61    6.77
 2015 151    49   100     3    97.6    86.1    11.6   23.43   82.27   10.20    0.00   13.26   23.43   67.15   35.17    0.00    7.05     3.2     3.4    4.26    4.90    5.57    6.04    6.39    6.60    3.19    0.42    0.46    0.46    0.54    0.53    0.40    0.24    0.19   10.24    3.62    3.82    4.72    5.44    6.10    6.44    6.63    6.79
 2015 152    50   100     3    94.1    84.4     9.7   23.95   83.81   10.20    0.00   13.34   23.95   71.16   35.17    0.00    5.71     3.7     3.3    4.09    4.83    5.59    6.09    6.41    6.62    2.31    0.39    0.42    0.42    0.53    0.53    0.37    0.23    0.18    8.02    4.13    3.71    4.51    5.35    6.12    6.46    6.65    6.80
 2015 153    51   100     3    92.2    83.0     9.1   24.46   84.64   10.20    0.00   13.40   24.46   73.30   35.35    0.00    5.48     3.6     3.0    3.96    4.79    5.59    6.15    6.46    6.67    2.15    0.42    0.39    0.38    0.46    0.53    0.34    0.22    0.18    7.63    4.00    3.37    4.34    5.25    6.11    6.48    6.68    6.85
 2015 154    52   100     3    88.4    80.2     8.2   24.99   85.51   10.20    0.00   13.45   24.99   77.53   35.39    0.00    4.87     3.1     2.6    3.73    4.75    5.60    6.20    6.49    6.69    1.73    0.44    0.37    0.35    0.41    0.52    0.31    0.22    0.18    6.60    3.55    3.01    4.09    5.16    6.12    6.51    6.71    6.88
 2015 155    53   100     3    84.0    77.1     6.9   25.53   86.55   10.20    0.00   13.50   25.53   82.41   35.39    0.00    3.99     2.6     2.4    3.56    4.72    5.68    6.24    6.51    6.71    1.22    0.40    0.34    0.33    0.38    0.46    0.29    0.21    0.18    5.20    3.01    2.71    3.88    5.09    6.14    6.53    6.72    6.89
 2015 156    54   100     3    80.5    74.6     5.8   26.08   87.60   10.20    0.00   13.54   26.08   86.43   35.39    0.00    2.64     2.5     2.4    3.45    4.70    5.75    6.27    6.53    6.72    0.79    0.38    0.32    0.31    0.35    0.42    0.27    0.20    0.18    3.43    2.86    2.75    3.76    5.05    6.16    6.54    6.74    6.90
 2015 157    55   100     3    79.0    73.2     5.7   26.60   88.14   10.20    0.00   13.58   26.60   87.73   36.11    0.00    2.51     2.3     2.3    3.17    4.54    5.74    6.30    6.57    6.77    0.74    0.40    0.35    0.32    0.32    0.38    0.26    0.20    0.18    3.25    2.73    2.63    3.49    4.86    6.12    6.55    6.77    6.95
 2015 158    56   100     3    76.7    71.3     5.5   27.13   88.69   10.20    0.00   13.62   27.13   90.12   36.42    0.00    2.20     2.0     2.1    2.93    4.44    5.76    6.32    6.60    6.79    0.61    0.42    0.37    0.33    0.30    0.35    0.24    0.20    0.18    2.81    2.45    2.43    3.27    4.75    6.10    6.56    6.79    6.97
 2015 159    57   100     3    74.2    69.1     5.2   27.65   89.29   10.20    0.00   13.65   27.65   93.13   36.42    0.00    1.72     1.6     1.8    2.79    4.40    5.80    6.34    6.61    6.80    0.48    0.44    0.38    0.31    0.29    0.32    0.23    0.19    0.18    2.20    2.08    2.18    3.10    4.69    6.12    6.58    6.81    6.98
 2015 160    58   100     3    72.5    67.7     4.8   28.18   90.09   10.20    0.00   13.69   28.18   95.34   36.42    0.00    1.04     1.4     1.7    2.82    4.42    5.88    6.38    6.63    6.81    0.42    0.41    0.36    0.30    0.27    0.30    0.23    0.19    0.18    1.46    1.80    2.11    3.12    4.70    6.18    6.61    6.82    6.99
 2015 161    59   100     3    71.2    66.2     5.0   28.69   90.40   10.20    0.00   13.73   28.69   95.78   37.78    0.00    1.01     1.3     1.7    2.67    4.15    5.68    6.34    6.65    6.85    0.42    0.43    0.38    0.32    0.29    0.31    0.22    0.19    0.18    1.42    1.74    2.04    2.98    4.44    5.99    6.56    6.84    7.03
 2015 162    60   100     3    69.9    64.7     5.1   29.21   90.76   10.20    0.00   13.76   29.21   96.71   38.64    0.00    0.91     1.2     1.5    2.53    3.97    5.57    6.32    6.65    6.86    0.42    0.45    0.40    0.33    0.30    0.32    0.21    0.19    0.18    1.33    1.62    1.94    2.87    4.28    5.89    6.53    6.84    7.04
 2015 163    61   100     3    69.0    63.8     5.2   29.73   91.21   10.20    0.00   13.80   29.73   98.08   38.64    0.00    0.55     0.9     1.4    2.41    4.05    5.76    6.41    6.70    6.87    0.40    0.47    0.41    0.35    0.32    0.30    0.21    0.19    0.18    0.95    1.37    1.80    2.76    4.37    6.05    6.62    6.88    7.05
 2015 164    62   100     3    67.1    61.8     5.4   30.23   91.43   10.20    0.00   13.84   30.23   98.29   40.72    0.00    0.54     0.9     1.3    2.27    3.78    5.42    6.23    6.62    6.87    0.41    0.49    0.43    0.37    0.34    0.31    0.22    0.20    0.18    0.95    1.35    1.75    2.64    4.11    5.73    6.46    6.82    7.05
 2015 165    63   100     3    65.9    60.3     5.5   30.75   91.76   10.27    0.00   13.88   30.75   98.87   41.85    0.00    0.50     0.8     1.2    2.16    3.60    5.24    6.14    6.60    6.87    0.40    0.51    0.45    0.38    0.35    0.32    0.24    0.20    0.18    0.90    1.29    1.67    2.54    3.95    5.56    6.38    6.80    7.05
 2015 166    64   100     3    65.1    59.5     5.6   31.28   92.15   10.30    0.00   13.92   31.28   99.58   42.32    0.00    0.54     0.7     1.1    2.06    3.50    5.16    6.10    6.61    6.89    0.39    0.52    0.46    0.40    0.37    0.33    0.25    0.20    0.18    0.93    1.20    1.58    2.46    3.86    5.50    6.35    6.81    7.07
 2015 167    65   100     3    64.6    59.1     5.5   31.82   92.76   10.31    0.00   13.96   31.82  100.63   42.32    0.00    0.46     0.7     1.0    1.98    3.45    5.18    6.15    6.63    6.90    0.34    0.46    0.47    0.41    0.38    0.34    0.24    0.19    0.18    0.80    1.13    1.48    2.39    3.83    5.52    6.39    6.82    7.08
 2015 168    66   100     3    63.7    58.1     5.6   32.35   93.13   10.33    0.00   13.99   32.35  101.27   43.00    0.00    0.47     0.6     0.9    1.85    3.32    5.07    6.08    6.64    6.93    0.34    0.48    0.47    0.41    0.39    0.35    0.25    0.19    0.18    0.81    1.11    1.39    2.26    3.71    5.42    6.34    6.83    7.11
 2015 169    67   100     3    63.2    57.7     5.6   32.88   93.66   10.33    0.00   14.03   32.88  101.97   43.29    0.00    0.49     0.6     0.9    1.75    3.25    5.04    6.09    6.65    6.95    0.34    0.50    0.43    0.42    0.39    0.36    0.24    0.19    0.18    0.83    1.06    1.31    2.17    3.64    5.39    6.33    6.84    7.13
 2015 170    68   100     3    63.0    57.7     5.4   33.42   94.38   10.34    0.00   14.07   33.42  102.66   43.29    0.00    0.52     0.6     0.8    1.73    3.22    5.05    6.12    6.67    6.96    0.34    0.45    0.40    0.38    0.40    0.36    0.23    0.19    0.18    0.86    1.01    1.25    2.11    3.62    5.42    6.35    6.86    7.14
 2015 171    69   100     3    62.7    57.7     5.0   33.95   95.23   10.34    0.00   14.11   33.95  103.47   43.29    0.00    0.49     0.5     0.8    1.70    3.24    5.11    6.14    6.68    6.97    0.30    0.42    0.37    0.35    0.37    0.33    0.22    0.19    0.18    0.79    0.97    1.20    2.06    3.60    5.44    6.36    6.87    7.15
 2015 172    70   100     3    62.6    57.9     4.7   34.47   96.00   10.34    0.00   14.14   34.47  104.03   43.29    0.00    0.51     0.6     0.8    1.67    3.23    5.16    6.17    6.71    7.00    0.27    0.39    0.35    0.33    0.34    0.31    0.22    0.18    0.18    0.78    0.96    1.16    2.00    3.57    5.47    6.39    6.89    7.18
 2015 173    71   100     3    62.5    58.0     4.5   34.96   96.63   10.34    0.00   14.18   34.96  104.60   43.29    0.00    0.51     0.5     0.8    1.65    3.24    5.20    6.19    6.72    7.01    0.27    0.37    0.34    0.31    0.32    0.29    0.21    0.18    0.18    0.78    0.90    1.15    1.96    3.55    5.49    6.40    6.90    7.18
 2015 174    72   100     3    62.4    58.0     4.4   35.45   97.23   10.34    0.00   14.22   35.45  105.16   43.29    0.00    0.53     0.5     0.8    1.63    3.24    5.23    6.21    6.73    7.01    0.27    0.35    0.32    0.29    0.30    0.28    0.21    0.18    0.18    0.80    0.87    1.10    1.93    3.54    5.51    6.41    6.91    7.19
 2015 175    73   100     3    62.1    57.9     4.2   35.93   97.80   10.34    0.00   14.26   35.93  105.89   43.29    0.00    0.44     0.5     0.8    1.62    3.24    5.26    6.22    6.73    7.02    0.27    0.34    0.31    0.28    0.29    0.26    0.20    0.18    0.18    0.71    0.83    1.06    1.90    3.53    5.53    6.42    6.92    7.20
 2015 176    74   100     3    62.2    58.1     4.1   36.40   98.37   10.34    0.00   14.30   36.40  106.24   43.29    0.00    0.49     0.5     0.7    1.61    3.25    5.29    6.24    6.74    7.02    0.25    0.33    0.30    0.27    0.27    0.25    0.20    0.18    0.18    0.74    0.87    1.03    1.88    3.52    5.55    6.44    6.93    7.21
 2015 177    75   100     3    62.2    58.2     4.0   36.87   98.93   10.34    0.00   14.34   36.87  106.66   43.29    0.00    0.50     0.5     0.7    1.58    3.23    5.33    6.26    6.77    7.05    0.23    0.32    0.29    0.26    0.26    0.24    0.20    0.18    0.18    0.73    0.87    1.01    1.84    3.50    5.57    6.46    6.95    7.23
 2015 178    76   100     3    62.2    58.3     3.9   37.34   99.44   10.34    0.00   14.37   37.34  107.10   43.29    0.00    0.50     0.5     0.7    1.58    3.24    5.35    6.28    6.78    7.05    0.23    0.31    0.29    0.25    0.25    0.24    0.20    0.18    0.18    0.73    0.83    1.01    1.83    3.49    5.59    6.47    6.96    7.24
 2015 179    77   100     3    62.2    58.3     3.8   37.81   99.93   10.34    0.00   14.42   37.81  107.54   43.29    0.00    0.52     0.5     0.7    1.58    3.25    5.38    6.29    6.78    7.06    0.23    0.30    0.28    0.25    0.25    0.23    0.20    0.19    0.18    0.75    0.80    0.99    1.82    3.49    5.61    6.48    6.97    7.24
 2015 180    78   100     3    62.1    58.4     3.8   38.27  100.41   10.34    0.00   14.46   38.27  108.01   43.29    0.00    0.44     0.5     0.7    1.58    3.25    5.40    6.30    6.79    7.06    0.23    0.30    0.28    0.24    0.24    0.22    0.19    0.19    0.18    0.67    0.83    0.97    1.82    3.49    5.63    6.49    6.97    7.24
 2015 181    79   100     3    62.2    58.5     3.7   38.73  100.91   10.34    0.00   14.46   38.73  108.38   43.29    0.00    0.49     0.5     0.7    1.58    3.26    5.42    6.31    6.79    7.06    0.23    0.29    0.27    0.24    0.23    0.22    0.19    0.19    0.18    0.72    0.81    0.96    1.82    3.50    5.64    6.50    6.98    7.25
 2015 182    80   100     3    62.3    58.6     3.7   39.19  101.41   10.34    0.00   14.47   39.19  108.72   43.29    0.00    0.52     0.5     0.7    1.57    3.26    5.45    6.33    6.81    7.09    0.23    0.28    0.27    0.23    0.23    0.21    0.19    0.19    0.18    0.75    0.79    0.95    1.80    3.49    5.67    6.52    7.00    7.27
 2015 183    81   100     3    62.5    58.9     3.7   39.66  101.92   10.34    0.00   14.47   39.66  109.02   43.29    0.00    0.52     0.5     0.7    1.56    3.25    5.48    6.36    6.84    7.11    0.23    0.28    0.26    0.23    0.22    0.21    0.19    0.19    0.18    0.75    0.82    0.94    1.78    3.48    5.69    6.55    7.02    7.29
 2015 184    82   100     3    62.6    59.0     3.6   40.14  102.43   10.34    0.00   14.47   40.14  109.37   43.29    0.00    0.52     0.5     0.7    1.55    3.25    5.51    6.38    6.86    7.14    0.23    0.27    0.26    0.22    0.22    0.21    0.19    0.19    0.18    0.76    0.81    0.93    1.77    3.47    5.72    6.57    7.05    7.32
 2015 185    83   100     3    62.8    59.2     3.6   40.62  102.97   10.34    0.00   14.48   40.62  109.71   43.29    0.00    0.54     0.5     0.7    1.54    3.24    5.54    6.41    6.89    7.16    0.23    0.27    0.25    0.22    0.22    0.20    0.19    0.19    0.18    0.77    0.80    0.92    1.75    3.46    5.74    6.60    7.08    7.35
 2015 186    84   100     3    62.9    59.4     3.5   41.11  103.50   10.34    0.00   14.48   41.11  110.03   43.29    0.00    0.56     0.5     0.7    1.52    3.23    5.57    6.44    6.92    7.19    0.23    0.26    0.25    0.21    0.21    0.20    0.19    0.18    0.18    0.79    0.80    0.92    1.74    3.44    5.77    6.63    7.10    7.37
 2015 187    85   100     3    63.1    59.7     3.4   41.59  104.04   10.34    0.00   14.49   41.59  110.34   43.29    0.00    0.59     0.5     0.7    1.51    3.22    5.60    6.47    6.95    7.22    0.22    0.25    0.24    0.21    0.21    0.20    0.19    0.18    0.18    0.81    0.80    0.91    1.72    3.43    5.80    6.65    7.13    7.40
 2015 188    86   100     3    63.3    59.9     3.4   42.07  104.57   10.34    0.00   14.49   42.07  110.64   43.29    0.00    0.62     0.5     0.7    1.50    3.21    5.63    6.49    6.97    7.24    0.22    0.24    0.24    0.21    0.21    0.19    0.19    0.18    0.18    0.84    0.79    0.91    1.71    3.42    5.82    6.68    7.16    7.43
 2015 189    87   100     3    63.4    60.1     3.4   42.53  105.06   10.34    0.00   14.49   42.53  110.93   43.29    0.00    0.65     0.6     0.7    1.49    3.20    5.66    6.52    7.00    7.27    0.21    0.24    0.23    0.20    0.21    0.19    0.19    0.18    0.18    0.86    0.79    0.91    1.69    3.41    5.85    6.70    7.18    7.45
 2015 190    88   100     3    63.6    60.2     3.3   42.96  105.50   10.34    0.00   14.49   42.96  111.23   43.29    0.00    0.66     0.6     0.7    1.47    3.19    5.68    6.54    7.02    7.29    0.21    0.23    0.23    0.20    0.21    0.19    0.19    0.18    0.18    0.88    0.79    0.90    1.68    3.39    5.87    6.73    7.21    7.48
 2015 191    89   100     3    63.7    60.4     3.3   43.37  105.91   10.34    0.00   14.50   43.37  111.50   43.29    0.00    0.68     0.6     0.7    1.46    3.17    5.70    6.57    7.04    7.32    0.21    0.23    0.23    0.20    0.21    0.19    0.19    0.18    0.18    0.90    0.78    0.90    1.66    3.38    5.90    6.75    7.23    7.50
 2015 192    90   100     3    63.8    60.5     3.3   43.77  106.32   10.34    0.00   14.50   43.77  111.76   43.29    0.00    0.71     0.6     0.7    1.44    3.15    5.73    6.59    7.07    7.34    0.21    0.23    0.23    0.20    0.21    0.19    0.19    0.19    0.18    0.92    0.78    0.89    1.64    3.36    5.92    6.78    7.25    7.52
 2015 193    91   100     3    64.0    60.7     3.3   44.18  106.74   10.34    0.00   14.50   44.18  112.00   43.29    0.00    0.74     0.6     0.7    1.43    3.14    5.75    6.61    7.09    7.36    0.21    0.22    0.23    0.20    0.21    0.19    0.19    0.19    0.19    0.94    0.78    0.89    1.63    3.35    5.94    6.80    7.28    7.55

*DSSAT Cropping System Model Ver. 4.7.5.007 -  MAR 01, 2026 21:19:28
!                                                                                                                              NO3 (ppm) at soil dep. (cm):                                            NH4 (ppm) at soil dep. (cm):                                            Total Inorganic N @dep(ppm):
!                                                                                                                              0-10   10-20   20-30   30-40   40-50   50-60   60-70   70-80   80-90    0-10   10-20   20-30   30-40   40-50   50-60   60-70   70-80   80-90    0-10   10-20   20-30   30-40   40-50   50-60   60-70   70-80   80-90
@YEAR DOY   DAS  NAPC  NI#M    NIAD    NITD    NHTD    NMNC    NITC    NDNC    NIMC    AMLC   NNMNC    NUCM    NLCC    TDFC    NI1D    NI2D    NI3D    NI4D    NI5D    NI6D    NI7D    NI8D    NI9D    NH1D    NH2D    NH3D    NH4D    NH5D    NH6D    NH7D    NH8D    NH9D    NT1D    NT2D    NT3D    NT4D    NT5D    NT6D    NT7D    NT8D    NT9D    
 2015 125     0     0     0   100.1    90.3     9.8    0.00    0.00    0.00    0.00    0.00    0.00    0.00    0.00    0.00    5.50     5.5     5.5    5.50    5.50    5.50    5.50    5.50    5.50    0.60    0.60    0.60    0.60    0.60    0.60    0.60    0.60    0.60    6.10    6.10    6.10    6.10    6.10    6.10    6.10    6.10    6.10
 2015 126     1    20     1   114.7    92.0    22.7    0.53    1.77    0.00    0.00    0.00    0.53    0.00    0.00    0.00    3.47     5.0     5.9    6.28    6.28    6.28    5.87    5.68    5.64    8.54    0.53    0.53    0.52    0.52    0.52    0.52    0.52    0.52   12.01    5.56    6.42    6.80    6.80    6.80    6.39    6.20    6.16
 2015 127     2    20     1   118.5    92.6    25.9    1.00    2.35    0.00    0.00    0.00    1.00    0.00    0.03    0.00    3.64     5.0     5.9    6.28    6.27    6.26    5.98    5.76    5.73   10.36    0.54    0.54    0.53    0.54    0.54    0.53    0.52    0.47   13.99    5.50    6.39    6.81    6.80    6.80    6.50    6.29    6.19
 2015 128     3    20     1   118.6    91.6    27.0    1.48    3.44    0.00    0.00    0.00    1.48    0.00    2.07    0.00    4.30     4.8     5.6    6.06    6.08    6.08    5.88    5.73    5.72   10.83    0.63    0.55    0.55    0.55    0.55    0.53    0.52    0.47   15.12    5.42    6.16    6.61    6.62    6.63    6.41    6.25    6.18
 2015 129     4    20     1   118.5    92.1    26.5    1.98    5.02    0.00    0.00    0.00    1.98    0.00    3.20    0.00    5.17     4.7     5.5    5.93    5.95    5.95    5.81    5.71    5.78   10.49    0.69    0.56    0.55    0.55    0.55    0.53    0.52    0.42   15.66    5.42    6.03    6.48    6.50    6.51    6.34    6.23    6.19
 2015 130     5    20     1   119.2    93.9    25.4    2.46    6.82    0.00    0.00    0.00    2.46    0.00    3.20    0.00    4.72     4.7     5.6    6.30    6.40    6.23    5.92    5.82    5.79    9.92    0.71    0.57    0.55    0.55    0.55    0.53    0.46    0.38   14.64    5.36    6.21    6.85    6.95    6.79    6.45    6.29    6.17
 2015 131     6    20     1   117.8    92.8    24.9    2.92    7.78    0.44    0.00    0.00    2.92    0.00    4.74    0.00    3.75     4.1     5.2    5.99    6.25    6.31    6.32    6.47    6.59    9.66    0.74    0.59    0.57    0.56    0.56    0.53    0.42    0.35   13.40    4.82    5.74    6.56    6.82    6.87    6.85    6.89    6.94
 2015 132     7    20     1   114.5    89.9    24.7    3.33    8.44    0.93    0.00    0.00    3.33    0.05    7.87    0.00    3.91     3.9     4.9    5.73    6.00    6.08    6.10    6.26    6.37    9.40    0.75    0.61    0.58    0.58    0.57    0.54    0.43    0.37   13.31    4.69    5.50    6.31    6.58    6.65    6.64    6.70    6.74
 2015 133     8    20     1   114.3    90.1    24.1    3.77    9.37    1.22    0.00    0.00    3.77    0.13    8.19    0.00    4.35     3.9     4.8    5.69    5.96    6.04    6.06    6.24    6.34    9.03    0.76    0.62    0.59    0.58    0.58    0.55    0.45    0.38   13.38    4.70    5.45    6.28    6.54    6.62    6.61    6.68    6.73
 2015 134     9    20     1   112.6    89.1    23.5    4.19   10.39    1.46    0.00    0.00    4.19    0.24    9.94    0.00    4.89     3.9     4.7    5.54    5.80    5.89    5.91    6.08    6.19    8.62    0.76    0.62    0.59    0.59    0.58    0.55    0.46    0.39   13.51    4.66    5.33    6.13    6.39    6.47    6.46    6.54    6.58
 2015 135    10    20     1   112.6    89.9    22.7    4.61   11.55    1.60    0.00    0.00    4.61    0.37   10.10    0.00    4.23     4.0     4.9    5.79    6.16    6.13    5.96    6.07    6.16    8.15    0.76    0.62    0.60    0.59    0.59    0.56    0.46    0.40   12.38    4.72    5.48    6.38    6.75    6.71    6.52    6.54    6.56
 2015 136    11    20     1   110.2    87.7    22.5    5.01   12.13    1.99    0.00    0.00    5.01    0.43   12.41    0.00    4.47     3.9     4.6    5.52    5.89    5.93    5.85    5.95    6.05    7.97    0.77    0.63    0.61    0.60    0.59    0.56    0.47    0.41   12.44    4.62    5.27    6.13    6.49    6.52    6.40    6.42    6.45
 2015 137    12    20     1   108.8    86.8    22.0    5.43   12.98    2.24    0.00    0.00    5.43    0.59   13.82    0.00    4.81     3.8     4.5    5.36    5.72    5.81    5.78    5.89    5.99    7.66    0.77    0.63    0.61    0.61    0.59    0.56    0.47    0.41   12.47    4.57    5.14    5.97    6.33    6.40    6.34    6.36    6.40
 2015 138    13    20     1   108.3    87.0    21.3    5.86   14.07    2.36    0.00    0.00    5.86    0.79   14.52    0.00    5.36     3.8     4.4    5.27    5.62    5.74    5.76    5.86    5.95    7.25    0.76    0.63    0.61    0.61    0.59    0.56    0.47    0.42   12.61    4.55    5.07    5.88    6.23    6.33    6.31    6.33    6.37
 2015 139    14    60     2   146.7    88.3    58.5    6.31   15.53    2.41    0.00    0.11    6.31    1.04   14.52    0.00    5.43     4.2     4.5    5.30    5.62    5.74    5.81    5.87    5.96   28.55    0.75    0.62    0.61    0.60    0.59    0.50    0.43    0.38   33.98    4.95    5.15    5.91    6.22    6.33    6.32    6.30    6.34
 2015 140    15    60     2   147.8    90.0    57.8    6.76   17.58    2.59    0.00    0.22    6.76    1.20   14.52    0.00    6.25     4.2     4.6    5.34    5.63    5.76    5.84    5.89    5.96   28.30    0.76    0.62    0.60    0.60    0.58    0.46    0.39    0.36   34.55    4.97    5.19    5.94    6.22    6.34    6.30    6.28    6.32
 2015 141    16    60     2   148.0    92.4    55.6    7.21   20.27    2.75    0.00    0.34    7.21    1.47   14.57    0.00    7.42     4.1     4.5    5.26    5.59    5.80    5.93    6.03    6.12   27.21    0.78    0.61    0.60    0.59    0.52    0.42    0.36    0.33   34.63    4.92    5.10    5.86    6.18    6.32    6.35    6.40    6.45
 2015 142    17    60     2   147.9    95.6    52.3    7.68   23.76    2.84    0.00    0.46    7.68    1.94   14.57    0.00    7.03     4.5     4.9    5.71    6.20    6.03    6.01    6.04    6.12   25.54    0.78    0.60    0.59    0.53    0.47    0.38    0.34    0.31   32.57    5.31    5.46    6.30    6.72    6.50    6.39    6.38    6.42
 2015 143    18    60     2   146.4    95.6    50.8    8.13   25.56    3.15    0.00    0.59    8.13    2.06   15.96    0.00    7.76     4.4     4.7    5.46    5.96    5.93    6.03    6.12    6.20   24.69    0.80    0.62    0.60    0.54    0.47    0.35    0.31    0.29   32.46    5.24    5.28    6.06    6.50    6.40    6.38    6.43    6.49
 2015 144    19    60     2   145.3    97.0    48.4    8.59   28.09    3.34    0.00    0.71    8.59    2.44   16.79    0.00    8.93     4.4     4.6    5.32    5.82    5.88    6.06    6.16    6.24   23.38    0.80    0.62    0.60    0.55    0.47    0.33    0.29    0.27   32.31    5.19    5.17    5.92    6.36    6.35    6.39    6.45    6.51
 2015 145    20    60     2   144.7    99.4    45.2    9.06   31.21    3.44    0.00    0.84    9.06    3.16   16.99    0.00   10.43     4.4     4.5    5.24    5.73    5.93    6.11    6.20    6.28   21.72    0.78    0.61    0.60    0.55    0.43    0.30    0.28    0.26   32.15    5.14    5.09    5.84    6.28    6.36    6.41    6.48    6.54
 2015 146    21    60     2   144.3   102.5    41.8    9.54   34.65    3.47    0.00    0.96    9.54    3.89   16.99    0.00   12.19     4.3     4.5    5.22    5.70    6.00    6.15    6.19    6.27   19.89    0.76    0.60    0.60    0.54    0.39    0.29    0.26    0.25   32.07    5.10    5.06    5.81    6.25    6.39    6.43    6.46    6.51
 2015 147    22    60     2   144.1   108.8    35.2   10.03   41.22    3.47    0.00    1.08   10.03    4.44   16.99    0.00   13.55     5.8     4.9    5.31    5.79    6.01    6.14    6.18    6.25   16.50    0.66    0.53    0.59    0.48    0.36    0.27    0.25    0.24   30.05    6.46    5.46    5.90    6.28    6.37    6.41    6.43    6.49
 2015 148    23    60     2   144.0   110.1    33.9   10.51   42.82    3.48    0.00    1.20   10.51    4.84   16.99    0.00   13.95     5.8     4.9    5.26    5.79    6.10    6.24    6.33    6.37   15.85    0.67    0.53    0.58    0.43    0.33    0.25    0.24    0.23   29.80    6.48    5.39    5.84    6.22    6.42    6.50    6.57    6.60
 2015 149    24    60     2   143.5   111.8    31.8   11.01   45.02    3.48    0.00    1.31   11.01    5.74   16.99    0.00   13.22     6.7     5.3    5.45    5.87    6.11    6.24    6.32    6.35   14.82    0.67    0.52    0.51    0.39    0.30    0.24    0.23    0.22   28.04    7.34    5.83    5.96    6.27    6.41    6.48    6.55    6.57
 2015 150    25    60     2   143.2   112.6    30.6   11.48   46.40    3.48    0.00    1.42   11.48    6.18   17.23    0.00   13.59     6.6     5.2    5.39    5.86    6.17    6.32    6.41    6.47   14.24    0.68    0.53    0.51    0.36    0.28    0.23    0.22    0.21   27.83    7.25    5.75    5.89    6.22    6.46    6.55    6.62    6.68
 2015 151    26    60     2   142.4   113.6    28.7   11.97   48.25    3.48    0.00    1.54   11.97    7.32   17.30    0.00   14.31     6.4     5.1    5.34    5.89    6.21    6.35    6.44    6.50   13.26    0.67    0.52    0.50    0.33    0.27    0.22    0.21    0.21   27.57    7.09    5.65    5.85    6.22    6.48    6.58    6.65    6.71
 2015 152    27    60     2   141.4   115.0    26.5   12.45   50.46    3.56    0.00    1.66   12.45    8.53   17.30    0.00   14.33     7.0     5.2    5.45    5.90    6.21    6.34    6.42    6.48   12.11    0.65    0.52    0.45    0.31    0.25    0.22    0.21    0.20   26.43    7.67    5.70    5.90    6.20    6.46    6.56    6.63    6.68
 2015 153    28    60     2   140.8   115.4    25.4   12.93   51.77    3.88    0.00    1.76   12.93    9.27   17.30    0.00   14.45     6.9     5.1    5.46    5.96    6.29    6.43    6.47    6.46   11.60    0.65    0.50    0.41    0.29    0.24    0.21    0.20    0.20   26.06    7.54    5.64    5.87    6.25    6.53    6.64    6.68    6.66
 2015 154    29    60     2   139.5   115.8    23.7   13.43   53.48    4.03    0.00    1.86   13.43   10.79   17.30    0.00   14.93     6.7     5.1    5.49    5.99    6.33    6.44    6.46    6.44   10.73    0.63    0.50    0.37    0.27    0.23    0.20    0.20    0.20   25.66    7.31    5.55    5.86    6.26    6.57    6.64    6.65    6.64
 2015 155    30    60     2   138.0   116.5    21.5   13.94   55.50    4.09    0.00    1.95   13.94   12.58   17.30    0.00   15.59     6.5     5.1    5.49    5.99    6.33    6.43    6.45    6.43    9.66    0.61    0.45    0.34    0.25    0.22    0.20    0.20    0.19   25.25    7.07    5.51    5.83    6.25    6.56    6.63    6.64    6.63
 2015 156    31    60     2   136.7   118.8    17.9   14.44   58.98    4.09    0.00    2.04   14.44   14.29   17.30    0.00   14.85     8.0     5.5    5.58    5.99    6.33    6.42    6.43    6.42    7.78    0.53    0.41    0.31    0.24    0.21    0.20    0.19    0.19   22.63    8.48    5.87    5.89    6.23    6.54    6.61    6.62    6.61
 2015 157    32    60     2   136.2   119.0    17.2   14.92   59.90    4.09    0.00    2.13   14.92   15.20   17.30    0.00   14.89     7.8     5.4    5.57    6.07    6.44    6.55    6.42    6.41    7.44    0.54    0.42    0.29    0.23    0.21    0.19    0.19    0.19   22.32    8.32    5.81    5.86    6.30    6.65    6.74    6.61    6.59
 2015 158    33    60     2   134.4   118.4    16.0   15.41   61.06    4.09    0.00    2.21   15.41   17.42   17.30    0.00   15.02     7.5     5.2    5.54    6.07    6.47    6.60    6.42    6.39    6.78    0.53    0.42    0.27    0.22    0.20    0.19    0.19    0.19   21.80    7.99    5.66    5.81    6.29    6.68    6.79    6.61    6.58
 2015 159    34   100     3   163.6   118.1    45.4   15.89   62.39    4.09    0.00    9.63   15.89   19.66   17.30    0.00   15.35     7.1     5.2    5.52    6.06    6.47    6.59    6.41    6.38   23.58    0.51    0.39    0.26    0.22    0.20    0.19    0.19    0.19   38.92    7.66    5.56    5.78    6.27    6.67    6.78    6.60    6.57
 2015 160    35   100     3   159.2   123.9    35.3   16.38   69.33    4.09    0.00   13.34   16.38   21.99   17.30    0.00   15.47     8.6     6.4    5.79    6.12    6.47    6.59    6.40    6.38   17.95    0.46    0.36    0.25    0.21    0.20    0.19    0.19    0.18   33.42    9.01    6.80    6.03    6.33    6.66    6.77    6.59    6.56
 2015 161    36   100     3   157.0   124.5    32.5   16.86   70.75    4.09    0.00   15.15   16.86   23.13   17.30    0.00   15.79     8.3     6.3    5.68    6.07    6.53    6.68    6.77    6.41   16.17    0.57    0.38    0.26    0.21    0.19    0.19    0.18    0.18   31.96    8.91    6.68    5.94    6.27    6.72    6.87    6.95    6.59
 2015 162    37   100     3   153.8   124.8    29.1   17.35   72.59    4.09    0.00   16.46   17.35   25.55   17.30    0.00   16.18     8.1     6.1    5.59    6.04    6.53    6.71    6.79    6.70   14.19    0.60    0.40    0.27    0.20    0.19    0.19    0.18    0.18   30.37    8.67    6.51    5.86    6.24    6.72    6.89    6.98    6.88
 2015 163    38   100     3   150.4   125.1    25.3   17.84   74.69    4.09    0.00   17.71   17.84   28.31   17.30    0.00   13.51     9.1     7.1    6.10    6.16    6.58    6.70    6.79    6.70   12.06    0.60    0.42    0.26    0.20    0.19    0.18    0.18    0.18   25.58    9.73    7.49    6.36    6.36    6.77    6.89    6.97    6.88
 2015 164    39   100     3   147.8   124.3    23.5   18.31   75.72    4.09    0.00   18.61   18.31   29.59   18.19    0.00   13.58     8.8     6.9    6.00    6.04    6.53    6.73    6.84    6.89   10.96    0.61    0.44    0.28    0.21    0.19    0.18    0.18    0.18   24.55    9.45    7.32    6.28    6.25    6.71    6.92    7.02    7.07
 2015 165    40   100     3   143.4   122.5    20.9   18.80   77.09    4.30    0.00   19.39   18.80   32.96   18.75    0.00   13.60     8.3     6.6    5.87    5.96    6.52    6.75    6.86    6.92    9.44    0.59    0.46    0.29    0.23    0.19    0.18    0.18    0.18   23.04    8.92    7.03    6.16    6.19    6.71    6.93    7.04    7.10
 2015 166    41   100     3   140.0   121.7    18.2   19.30   78.63    4.37    0.00   20.00   19.30   36.12   18.82    0.00   13.87     7.9     6.3    5.76    5.94    6.54    6.78    6.89    6.95    7.98    0.57    0.46    0.31    0.22    0.19    0.18    0.18    0.18   21.84    8.49    6.79    6.07    6.16    6.73    6.96    7.07    7.13
 2015 167    42   100     3   136.7   122.0    14.6   19.81   81.32    4.37    0.00   20.46   19.81   39.48   18.82    0.00   10.22     8.4     7.4    6.70    6.69    6.78    6.85    6.91    6.95    6.00    0.48    0.47    0.32    0.21    0.18    0.18    0.18    0.18   16.22    8.92    7.91    7.02    6.90    6.97    7.03    7.09    7.13
 2015 168    43   100     3   133.7   119.7    14.0   20.29   81.92    4.55    0.00   20.72   20.29   40.52   20.79    0.00   10.13     8.1     7.1    6.52    6.50    6.63    6.79    6.92    6.99    5.53    0.50    0.49    0.33    0.24    0.20    0.20    0.18    0.18   15.67    8.60    7.62    6.85    6.73    6.83    6.99    7.10    7.17
 2015 169    44   100     3   129.6   116.7    12.9   20.80   82.70    4.65    0.00   20.92   20.80   43.68   21.97    0.00    9.83     7.6     6.8    6.32    6.35    6.55    6.76    6.93    7.01    4.78    0.52    0.50    0.35    0.25    0.22    0.21    0.18    0.18   14.62    8.10    7.25    6.67    6.60    6.77    6.97    7.11    7.19
 2015 170    45   100     3   125.9   114.4    11.5   21.31   83.60    4.70    0.00   21.08   21.31   47.64   21.97    0.00    7.04     7.2     7.2    6.84    6.75    6.82    6.88    6.98    7.02    3.96    0.51    0.50    0.36    0.27    0.24    0.21    0.18    0.18   11.01    7.74    7.67    7.20    7.03    7.06    7.09    7.16    7.20
 2015 171    46   100     3   122.9   111.7    11.2   21.80   84.05    4.87    0.00   21.20   21.80   48.66   24.15    0.00    6.93     6.9     6.8    6.61    6.56    6.66    6.79    6.94    7.04    3.67    0.53    0.52    0.38    0.29    0.25    0.22    0.20    0.18   10.60    7.43    7.34    6.99    6.85    6.91    7.02    7.14    7.22
 2015 172    47   100     3   118.7   108.3    10.3   22.29   84.64    5.14    0.00   21.30   22.29   51.76   25.41    0.00    6.57     6.4     6.4    6.38    6.38    6.55    6.75    6.94    7.06    3.15    0.51    0.51    0.40    0.31    0.27    0.24    0.19    0.18    9.72    6.88    6.93    6.78    6.69    6.82    6.99    7.13    7.24
 2015 173    48   100     3   113.6   104.3     9.3   22.77   85.25    5.26    0.00   21.38   22.77   56.52   26.00    0.00    5.98     5.7     5.9    6.14    6.24    6.49    6.73    6.96    7.08    2.50    0.51    0.51    0.41    0.32    0.28    0.25    0.19    0.18    8.47    6.19    6.45    6.55    6.56    6.77    6.99    7.15    7.26
 2015 174    49   100     3   109.7   101.6     8.1   23.24   86.18    5.30    0.00   21.44   23.24   60.83   26.00    0.00    4.02     5.0     5.9    6.52    6.63    6.65    6.81    7.01    7.09    1.81    0.46    0.51    0.42    0.33    0.29    0.27    0.19    0.18    5.83    5.50    6.45    6.94    6.96    6.94    7.07    7.20    7.27
 2015 175    50   100     3   106.9    98.8     8.0   23.69   86.47    5.54    0.00   21.50   23.69   61.66   28.09    0.00    3.91     4.8     5.6    6.24    6.39    6.50    6.72    6.95    7.10    1.70    0.48    0.52    0.43    0.35    0.31    0.28    0.21    0.18    5.61    5.25    6.13    6.67    6.74    6.81    7.00    7.16    7.28
 2015 176    51   100     3   103.6    95.9     7.7   24.14   86.86    5.68    0.00   21.55   24.14   64.02   29.29    0.00    3.64     4.3     5.2    5.98    6.21    6.42    6.69    6.95    7.11    1.46    0.50    0.51    0.44    0.36    0.32    0.29    0.20    0.18    5.10    4.85    5.74    6.42    6.57    6.74    6.97    7.15    7.29
 2015 177    52   100     3   100.1    92.9     7.2   24.61   87.29    5.75    0.00   21.60   24.61   67.87   29.29    0.00    2.68     3.8     5.1    5.87    6.16    6.47    6.72    6.98    7.12    1.13    0.51    0.51    0.45    0.37    0.33    0.30    0.20    0.18    3.81    4.35    5.57    6.32    6.53    6.79    7.02    7.18    7.30
 2015 178    53   100     3    97.8    90.6     7.2   25.06   87.61    5.87    0.00   21.64   25.06   68.94   30.80    0.00    2.60     3.6     4.7    5.57    5.98    6.37    6.68    6.96    7.13    1.07    0.53    0.52    0.46    0.38    0.34    0.31    0.20    0.18    3.66    4.16    5.24    6.04    6.36    6.71    6.99    7.16    7.32
 2015 179    54   100     3    95.0    88.0     7.0   25.52   87.99    5.97    0.00   21.68   25.52   71.30   31.59    0.00    2.39     3.3     4.3    5.30    5.83    6.31    6.65    6.97    7.15    0.92    0.51    0.51    0.47    0.39    0.35    0.32    0.20    0.18    3.30    3.81    4.85    5.77    6.22    6.66    6.97    7.16    7.33
 2015 180    55   100     3    91.8    85.1     6.7   25.98   88.39    6.01    0.00   21.72   25.98   74.58   31.84    0.00    2.05     2.9     3.9    5.03    5.72    6.30    6.65    6.99    7.17    0.71    0.51    0.51    0.47    0.40    0.35    0.33    0.20    0.18    2.76    3.37    4.43    5.51    6.11    6.66    6.98    7.18    7.35
 2015 181    56   100     3    88.9    82.7     6.2   26.44   89.00    6.02    0.00   21.76   26.44   77.89   31.84    0.00    1.23     2.2     3.5    5.01    6.02    6.46    6.71    7.02    7.18    0.50    0.47    0.47    0.48    0.40    0.36    0.34    0.20    0.18    1.73    2.69    3.98    5.49    6.42    6.82    7.04    7.22    7.36
 2015 182    57   100     3    86.8    80.4     6.3   26.88   89.26    6.15    0.00   21.80   26.88   78.31   33.84    0.00    1.20     2.1     3.3    4.72    5.72    6.28    6.63    6.98    7.18    0.49    0.49    0.48    0.49    0.41    0.37    0.34    0.19    0.18    1.69    2.58    3.79    5.22    6.13    6.65    6.98    7.17    7.37
 2015 183    58   100     3    84.9    78.5     6.4   27.35   89.59    6.23    0.00   21.83   27.35   79.43   34.95    0.00    1.12     1.9     3.1    4.50    5.51    6.17    6.59    6.97    7.19    0.48    0.50    0.50    0.50    0.43    0.38    0.35    0.19    0.18    1.60    2.40    3.58    5.00    5.94    6.55    6.95    7.16    7.37
 2015 184    59   100     3    83.6    77.1     6.5   27.84   89.98    6.28    0.00   21.87   27.84   81.13   34.95    0.00    0.85     1.7     2.9    4.38    5.46    6.22    6.63    7.00    7.20    0.46    0.51    0.50    0.51    0.44    0.38    0.36    0.19    0.18    1.31    2.17    3.41    4.89    5.90    6.60    6.99    7.19    7.38
 2015 185    60   100     3    81.9    75.3     6.5   28.32   90.33    6.33    0.00   21.91   28.32   81.89   36.29    0.00    0.84     1.6     2.7    4.12    5.25    6.10    6.57    6.98    7.21    0.46    0.52    0.51    0.52    0.45    0.39    0.37    0.19    0.18    1.29    2.09    3.20    4.63    5.70    6.49    6.94    7.17    7.40
 2015 186    61   100     3    80.3    73.8     6.5   28.83   90.74    6.38    0.00   21.95   28.83   83.22   36.90    0.00    0.79     1.4     2.5    3.91    5.12    6.04    6.55    6.98    7.23    0.44    0.52    0.51    0.50    0.45    0.40    0.37    0.19    0.18    1.23    1.95    2.96    4.41    5.57    6.44    6.92    7.17    7.41
 2015 187    62   100     3    79.1    72.6     6.5   29.34   91.19    6.40    0.00   21.99   29.34   84.80   37.06    0.00    0.70     1.3     2.2    3.73    5.03    6.04    6.55    7.00    7.25    0.43    0.51    0.51    0.51    0.46    0.40    0.38    0.19    0.18    1.13    1.78    2.75    4.24    5.49    6.44    6.93    7.19    7.44
 2015 188    63   100     3    78.0    71.8     6.2   29.85   91.94    6.41    0.00   22.02   29.85   86.35   37.06    0.00    0.65     1.2     2.1    3.58    4.98    6.05    6.60    7.02    7.27    0.38    0.46    0.47    0.51    0.46    0.41    0.35    0.19    0.18    1.03    1.63    2.55    4.08    5.44    6.46    6.95    7.21    7.45
 2015 189    64   100     3    77.2    71.3     5.9   30.34   92.69    6.41    0.00   22.04   30.34   87.59   37.06    0.00    0.60     1.1     2.0    3.49    4.93    6.07    6.64    7.04    7.29    0.35    0.43    0.43    0.46    0.46    0.41    0.32    0.19    0.18    0.95    1.53    2.40    3.95    5.39    6.48    6.97    7.23    7.47
 2015 190    65   100     3    77.6    71.9     5.8   30.80   93.29    6.41    0.00   22.05   30.80   87.61   37.06    0.00    0.62     1.2     2.0    3.55    4.95    6.09    6.68    7.06    7.31    0.35    0.41    0.41    0.43    0.46    0.41    0.31    0.19    0.18    0.98    1.56    2.43    3.98    5.42    6.50    6.99    7.25    7.49
 2015 191    66   100     3    76.8    71.2     5.5   31.24   93.93    6.41    0.00   22.08   31.24   88.88   37.06    0.00    0.50     1.1     1.9    3.46    4.90    6.13    6.71    7.07    7.32    0.32    0.39    0.39    0.40    0.47    0.39    0.29    0.19    0.18    0.82    1.46    2.32    3.86    5.36    6.52    7.00    7.26    7.50
 2015 192    67   100     3    76.0    70.6     5.4   31.67   94.44    6.41    0.00   22.13   31.67   89.71   37.40    0.00    0.51     1.0     1.7    3.29    4.82    6.12    6.74    7.12    7.37    0.32    0.41    0.40    0.38    0.44    0.36    0.28    0.19    0.19    0.83    1.43    2.14    3.67    5.26    6.48    7.02    7.30    7.55
 2015 193    68   100     3    75.4    70.1     5.2   32.13   95.01    6.41    0.00   22.17   32.13   90.72   37.43    0.00    0.49     0.9     1.6    3.18    4.80    6.15    6.78    7.14    7.39    0.31    0.43    0.38    0.36    0.41    0.34    0.27    0.19    0.19    0.80    1.37    2.00    3.54    5.20    6.49    7.04    7.32    7.58
 2015 194    69   100     3    74.9    69.8     5.1   32.60   95.62    6.41    0.00   22.21   32.60   91.65   37.43    0.00    0.38     0.7     1.5    3.12    4.94    6.28    6.84    7.15    7.40    0.31    0.44    0.36    0.34    0.38    0.32    0.26    0.19    0.19    0.68    1.18    1.84    3.46    5.32    6.60    7.10    7.33    7.58
 2015 195    70   100     3    73.4    68.1     5.3   33.10   95.89    6.41    0.00   22.25   33.10   91.81   39.21    0.00    0.39     0.7     1.4    2.93    4.65    6.04    6.73    7.13    7.41    0.30    0.46    0.39    0.36    0.39    0.33    0.27    0.19    0.18    0.70    1.18    1.79    3.29    5.04    6.37    7.00    7.32    7.59
 2015 196    71   100     3    72.6    67.2     5.3   33.64   96.30    6.42    0.00   22.30   33.64   92.20   40.12    0.00    0.42     0.7     1.3    2.81    4.48    5.93    6.71    7.13    7.42    0.30    0.48    0.40    0.37    0.40    0.34    0.25    0.18    0.18    0.72    1.16    1.75    3.18    4.88    6.27    6.96    7.31    7.60
 2015 197    72   100     3    72.2    66.8     5.4   34.19   96.74    6.42    0.00   22.34   34.19   92.78   40.37    0.00    0.46     0.6     1.3    2.72    4.40    5.90    6.73    7.15    7.44    0.29    0.49    0.42    0.39    0.41    0.35    0.24    0.18    0.18    0.75    1.12    1.69    3.11    4.81    6.24    6.97    7.33    7.62
 2015 198    73   100     3    72.1    66.8     5.3   34.73   97.35    6.42    0.00   22.38   34.73   93.45   40.37    0.00    0.41     0.6     1.2    2.69    4.40    5.94    6.77    7.16    7.45    0.26    0.45    0.42    0.39    0.42    0.35    0.23    0.18    0.18    0.67    1.08    1.64    3.08    4.82    6.29    7.00    7.34    7.63
 2015 199    74   100     3    70.9    65.5     5.4   35.24   97.70    6.47    0.00   22.43   35.24   93.68   41.77    0.00    0.42     0.6     1.2    2.51    4.16    5.75    6.69    7.15    7.46    0.26    0.47    0.44    0.41    0.43    0.36    0.22    0.18    0.18    0.68    1.09    1.61    2.92    4.59    6.11    6.91    7.33    7.64
 2015 200    75   100     3    70.2    64.7     5.5   35.76   98.09    6.50    0.00   22.47   35.76   94.07   42.49    0.00    0.44     0.6     1.1    2.39    4.03    5.66    6.67    7.15    7.47    0.26    0.49    0.46    0.42    0.43    0.37    0.21    0.18    0.18    0.70    1.08    1.57    2.81    4.47    6.03    6.88    7.33    7.65
 2015 201    76   100     3    70.0    64.4     5.5   36.26   98.50    6.51    0.00   22.51   36.26   94.59   42.66    0.00    0.47     0.6     1.1    2.31    3.98    5.64    6.68    7.17    7.50    0.26    0.50    0.47    0.43    0.44    0.37    0.21    0.18    0.18    0.72    1.06    1.53    2.74    4.41    6.01    6.89    7.35    7.68
 2015 202    77   100     3    69.8    64.6     5.2   36.76   99.25    6.51    0.00   22.56   36.76   95.17   42.66    0.00    0.52     0.6     1.1    2.26    4.00    5.69    6.69    7.17    7.49    0.23    0.46    0.43    0.43    0.40    0.34    0.21    0.18    0.18    0.75    1.04    1.49    2.69    4.40    6.03    6.89    7.35    7.68
 2015 203    78   100     3    69.6    64.7     4.9   37.25  100.03    6.51    0.00   22.60   37.25   95.79   42.66    0.00    0.51     0.6     1.1    2.25    4.02    5.73    6.70    7.18    7.50    0.21    0.43    0.40    0.40    0.37    0.32    0.20    0.18    0.18    0.72    1.03    1.46    2.65    4.38    6.05    6.90    7.36    7.68
 2015 204    79   100     3    69.7    65.0     4.7   37.76  100.78    6.51    0.00   22.61   37.76   96.27   42.66    0.00    0.46     0.7     1.1    2.24    4.02    5.78    6.73    7.21    7.53    0.21    0.40    0.38    0.37    0.34    0.30    0.20    0.18    0.18    0.67    1.07    1.45    2.60    4.36    6.08    6.93    7.39    7.71
 2015 205    80   100     3    69.7    65.1     4.6   38.27  101.32    6.51    0.00   22.61   38.27   96.70   42.68    0.00    0.46     0.6     1.0    2.19    3.99    5.80    6.78    7.27    7.60    0.23    0.42    0.39    0.34    0.32    0.28    0.20    0.18    0.18    0.70    1.07    1.39    2.53    4.31    6.08    6.98    7.46    7.78
 2015 206    81   100     3    69.8    65.2     4.5   38.80  101.94    6.51    0.00   22.62   38.80   97.17   42.68    0.00    0.49     0.6     1.0    2.18    4.00    5.84    6.81    7.29    7.60    0.26    0.44    0.36    0.31    0.30    0.26    0.19    0.18    0.18    0.74    1.06    1.36    2.49    4.29    6.10    7.00    7.47    7.78
 2015 207    82   100     3    69.8    65.4     4.4   39.34  102.57    6.51    0.00   22.62   39.34   97.69   42.68    0.00    0.52     0.6     1.0    2.17    4.01    5.87    6.82    7.29    7.60    0.27    0.45    0.34    0.29    0.28    0.25    0.19    0.18    0.18    0.80    1.04    1.34    2.47    4.29    6.12    7.01    7.47    7.78
 2015 208    83   100     3    69.8    65.5     4.2   39.89  103.32    6.51    0.00   22.63   39.89   98.26   42.68    0.00    0.40     0.6     1.1    2.21    4.06    5.91    6.83    7.30    7.61    0.26    0.41    0.32    0.28    0.26    0.24    0.19    0.18    0.18    0.67    1.02    1.37    2.49    4.32    6.15    7.02    7.47    7.78
 2015 209    84   100     3    69.3    64.9     4.4   40.42  103.68    6.51    0.00   22.64   40.42   98.48   43.49    0.00    0.42     0.6     1.0    2.09    3.85    5.78    6.81    7.35    7.70    0.29    0.44    0.34    0.29    0.28    0.22    0.18    0.18    0.18    0.71    1.04    1.36    2.38    4.13    6.00    7.00    7.53    7.87
 2015 210    85   100     3    68.8    64.3     4.5   40.96  104.13    6.51    0.00   22.64   40.96   98.79   44.17    0.00    0.44     0.6     1.0    2.00    3.76    5.71    6.79    7.35    7.71    0.31    0.46    0.36    0.31    0.26    0.22    0.18    0.18    0.18    0.75    1.04    1.35    2.31    4.02    5.92    6.97    7.53    7.88
 2015 211    86   100     3    68.9    64.4     4.5   41.51  104.62    6.51    0.00   22.65   41.51   99.20   44.17    0.00    0.48     0.6     1.0    1.97    3.77    5.74    6.81    7.37    7.70    0.32    0.47    0.38    0.32    0.25    0.21    0.18    0.18    0.18    0.80    1.03    1.34    2.29    4.02    5.94    6.99    7.55    7.88
 2015 212    87   100     3    69.0    64.8     4.3   42.06  105.41    6.51    0.00   22.65   42.06   99.64   44.17    0.00    0.56     0.6     1.0    1.99    3.79    5.76    6.82    7.37    7.70    0.30    0.43    0.35    0.30    0.24    0.20    0.18    0.18    0.18    0.86    1.03    1.33    2.28    4.03    5.96    7.00    7.54    7.87
 2015 213    88   100     3    69.1    65.0     4.1   42.61  106.16    6.51    0.00   22.66   42.61  100.13   44.17    0.00    0.57     0.6     1.0    1.97    3.79    5.79    6.85    7.40    7.73    0.29    0.39    0.33    0.28    0.23    0.20    0.18    0.18    0.18    0.85    1.02    1.30    2.25    4.02    5.99    7.03    7.57    7.90
 2015 214    89   100     3    69.1    65.2     3.9   43.16  106.87    6.51    0.00   22.66   43.16  100.62   44.17    0.00    0.58     0.6     1.0    1.95    3.79    5.83    6.88    7.43    7.75    0.27    0.36    0.31    0.26    0.22    0.19    0.18    0.17    0.18    0.86    1.01    1.27    2.21    4.01    6.02    7.06    7.60    7.93
 2015 215    90   100     3    69.2    65.4     3.8   43.70  107.55    6.51    0.00   22.67   43.70  101.09   44.17    0.00    0.60     0.7     1.0    1.93    3.78    5.86    6.91    7.46    7.78    0.26    0.34    0.29    0.25    0.21    0.19    0.18    0.17    0.17    0.87    1.00    1.25    2.18    4.00    6.05    7.08    7.63    7.96
 2015 216    91   100     3    69.3    65.7     3.7   44.25  108.20    6.51    0.00   22.67   44.25  101.53   44.17    0.00    0.63     0.7     1.0    1.90    3.78    5.89    6.94    7.48    7.81    0.25    0.32    0.28    0.24    0.21    0.19    0.18    0.17    0.17    0.88    0.99    1.23    2.14    3.98    6.08    7.11    7.66    7.99
 2015 217    92   100     3    69.4    65.9     3.6   44.79  108.83    6.51    0.00   22.67   44.79  101.95   44.17    0.00    0.66     0.7     0.9    1.88    3.76    5.92    6.97    7.51    7.84    0.24    0.30    0.27    0.23    0.20    0.18    0.18    0.17    0.17    0.90    0.98    1.21    2.11    3.97    6.11    7.14    7.69    8.01
 2015 218    93   100     3    69.6    66.1     3.5   45.32  109.45    6.51    0.00   22.68   45.32  102.28   44.17    0.00    0.69     0.7     0.9    1.86    3.76    5.95    6.99    7.54    7.87    0.23    0.28    0.26    0.22    0.20    0.18    0.18    0.17    0.17    0.93    0.99    1.21    2.09    3.96    6.14    7.17    7.72    8.04
 2015 219    94   100     3    69.9    66.5     3.4   45.86  110.06    6.51    0.00   22.68   45.86  102.56   44.17    0.00    0.73     0.7     1.0    1.86    3.76    5.98    7.02    7.57    7.90    0.22    0.27    0.25    0.22    0.20    0.18    0.17    0.17    0.17    0.96    0.99    1.21    2.08    3.96    6.16    7.20    7.75    8.07
 2015 220    95   100     3    70.2    66.9     3.3   46.40  110.67    6.51    0.00   22.68   46.40  102.79   44.17    0.00    0.77     0.7     1.0    1.86    3.77    6.01    7.05    7.60    7.93    0.21    0.26    0.25    0.21    0.20    0.18    0.17    0.17    0.17    0.99    1.00    1.22    2.07    3.97    6.19    7.23    7.77    8.10

*DSSAT Cropping System Model Ver. 4.7.5.007 -  MAR 01, 2026 21:19:28
!                                                                                                                              NO3 (ppm) at soil dep. (cm):                                            NH4 (ppm) at soil dep. (cm):                                            Total Inorganic N @dep(ppm):
!                                                                                                                              0-10   10-20   20-30   30-40   40-50   50-60   60-70   70-80   80-90    0-10   10-20   20-30   30-40   40-50   50-60   60-70   70-80   80-90    0-10   10-20   20-30   30-40   40-50   50-60   60-70   70-80   80-90
@YEAR DOY   DAS  NAPC  NI#M    NIAD    NITD    NHTD    NMNC    NITC    NDNC    NIMC    AMLC   NNMNC    NUCM    NLCC    TDFC    NI1D    NI2D    NI3D    NI4D    NI5D    NI6D    NI7D    NI8D    NI9D    NH1D    NH2D    NH3D    NH4D    NH5D    NH6D    NH7D    NH8D    NH9D    NT1D    NT2D    NT3D    NT4D    NT5D    NT6D    NT7D    NT8D    NT9D    
 2015 147     0     0     0   100.1    90.3     9.8    0.00    0.00    0.00    0.00    0.00    0.00    0.00    0.00    0.00    5.50     5.5     5.5    5.50    5.50    5.50    5.50    5.50    5.50    0.60    0.60    0.60    0.60    0.60    0.60    0.60    0.60    0.60    6.10    6.10    6.10    6.10    6.10    6.10    6.10    6.10    6.10
 2015 148     1    20     1   114.7    92.0    22.7    0.53    1.77    0.00    0.00    0.00    0.53    0.00    0.00    0.00    4.13     5.6     6.2    6.23    5.79    5.66    5.63    5.61    5.61    8.54    0.53    0.53    0.52    0.52    0.52    0.52    0.52    0.52   12.66    6.08    6.74    6.76    6.31    6.18    6.15    6.13    6.13
 2015 149     2    20     1   118.0    92.2    25.9    1.02    3.08    0.00    0.00    0.00    1.02    0.00    1.16    0.00    4.62     5.4     6.0    6.07    5.73    5.70    5.69    5.69    5.69   10.54    0.54    0.54    0.53    0.52    0.46    0.46    0.46    0.47   15.17    5.90    6.50    6.60    6.26    6.16    6.16    6.16    6.16
 2015 150     3    20     1   119.3    93.4    25.9    1.52    4.78    0.00    0.00    0.00    1.52    0.00    1.63    0.00    5.41     5.3     5.8    5.96    5.72    5.77    5.77    5.77    5.77   10.69    0.61    0.55    0.54    0.52    0.42    0.42    0.42    0.42   16.10    5.87    6.34    6.49    6.24    6.19    6.19    6.19    6.19
 2015 151     4    20     1   120.2    95.3    24.8    2.01    6.77    0.00    0.00    0.00    2.01    0.00    1.71    0.00    6.36     5.2     5.7    5.89    5.78    5.84    5.84    5.84    5.84   10.25    0.65    0.55    0.54    0.46    0.38    0.38    0.38    0.38   16.60    5.88    6.24    6.43    6.25    6.21    6.22    6.22    6.22
 2015 152     5    20     1   120.8    97.4    23.4    2.50    8.82    0.00    0.00    0.00    2.50    0.00    1.71    0.00    7.39     5.2     5.6    5.86    5.86    5.90    5.88    5.85    5.85    9.61    0.66    0.55    0.53    0.42    0.34    0.35    0.35    0.35   17.00    5.90    6.19    6.40    6.28    6.25    6.22    6.20    6.20
 2015 153     6    20     1   121.3    99.6    21.7    2.99   11.05    0.02    0.00    0.00    2.99    0.00    1.71    0.00    8.45     5.3     5.6    5.91    5.89    5.91    5.88    5.86    5.85    8.93    0.60    0.55    0.48    0.38    0.32    0.32    0.32    0.32   17.38    5.94    6.17    6.39    6.27    6.23    6.20    6.18    6.18
 2015 154     7    20     1   121.7   103.1    18.7    3.48   14.61    0.02    0.00    0.00    3.48    0.10    1.71    0.00   10.27     5.4     5.7    5.95    5.90    5.91    5.89    5.86    5.86    7.49    0.54    0.49    0.43    0.35    0.30    0.30    0.30    0.30   17.76    5.94    6.15    6.37    6.25    6.21    6.18    6.16    6.15
 2015 155     8    20     1   122.1   106.1    16.0    3.98   17.73    0.02    0.00    0.00    3.98    0.21    1.71    0.00    8.83     6.5     6.6    6.52    6.11    5.98    5.94    5.91    5.90    6.25    0.48    0.44    0.39    0.32    0.28    0.28    0.28    0.28   15.08    6.96    7.03    6.91    6.43    6.25    6.21    6.19    6.18
 2015 156     9    20     1   122.5   106.9    15.6    4.46   18.58    0.02    0.00    0.00    4.46    0.28    1.71    0.00    9.11     6.3     6.3    6.39    6.12    6.10    6.11    6.11    6.10    6.07    0.50    0.46    0.40    0.29    0.26    0.26    0.26    0.26   15.18    6.83    6.81    6.79    6.42    6.36    6.37    6.38    6.36
 2015 157    10    20     1   122.5   107.5    15.1    4.95   19.61    0.02    0.00    0.00    4.95    0.46    2.00    0.00    9.57     6.2     6.2    6.30    6.17    6.15    6.16    6.16    6.15    5.78    0.51    0.47    0.41    0.28    0.25    0.25    0.25    0.25   15.35    6.75    6.65    6.71    6.44    6.39    6.40    6.40    6.40
 2015 158    11    20     1   122.8   108.5    14.4    5.43   20.72    0.02    0.00    0.00    5.43    0.63    2.00    0.00   10.17     6.2     6.1    6.25    6.21    6.19    6.20    6.20    6.16    5.44    0.52    0.48    0.41    0.26    0.24    0.24    0.24    0.24   15.61    6.69    6.55    6.67    6.47    6.42    6.43    6.43    6.40
 2015 159    12    20     1   123.1   109.5    13.6    5.90   21.95    0.02    0.00    0.00    5.90    0.83    2.00    0.00   10.86     6.1     6.0    6.27    6.25    6.20    6.18    6.18    6.15    5.06    0.52    0.48    0.38    0.25    0.23    0.23    0.23    0.23   15.93    6.66    6.49    6.65    6.50    6.43    6.41    6.41    6.38
 2015 160    13    20     1   123.3   110.7    12.7    6.38   23.26    0.03    0.00    0.00    6.38    1.07    2.00    0.00    8.67     7.0     6.9    7.02    6.46    6.24    6.17    6.16    6.13    4.68    0.47    0.48    0.34    0.24    0.22    0.22    0.22    0.22   13.35    7.48    7.35    7.37    6.70    6.46    6.39    6.39    6.35
 2015 161    14    20     1   123.0   110.5    12.5    6.84   23.86    0.27    0.00    0.00    6.84    1.16    2.44    0.00    8.85     6.8     6.6    6.82    6.39    6.30    6.30    6.31    6.30    4.56    0.49    0.50    0.36    0.25    0.21    0.21    0.21    0.22   13.41    7.30    7.09    7.18    6.65    6.51    6.52    6.53    6.52
 2015 162    15    20     1   122.5   110.3    12.2    7.32   24.62    0.42    0.00    0.00    7.32    1.46    3.01    0.00    9.13     6.7     6.4    6.68    6.37    6.34    6.34    6.34    6.34    4.34    0.50    0.51    0.37    0.27    0.21    0.21    0.21    0.21   13.47    7.16    6.90    7.06    6.63    6.54    6.55    6.55    6.55
 2015 163    16    60     2   160.8   110.8    50.0    7.80   25.53    0.50    0.00    0.11    7.80    1.84    3.01    0.00    9.62     6.5     6.3    6.59    6.40    6.37    6.37    6.38    6.37   25.83    0.51    0.51    0.38    0.25    0.20    0.20    0.20    0.21   35.45    7.04    6.77    6.97    6.65    6.58    6.58    6.58    6.58
 2015 164    17    60     2   161.9   114.2    47.6    8.28   29.21    0.54    0.00    0.22    8.28    2.26    3.01    0.00   11.77     6.5     6.2    6.53    6.44    6.39    6.35    6.36    6.35   24.50    0.51    0.51    0.39    0.24    0.20    0.20    0.20    0.20   36.28    6.98    6.70    6.92    6.68    6.59    6.55    6.56    6.55
 2015 165    18    60     2   162.1   118.0    44.1    8.76   33.21    0.55    0.00    0.33    8.76    2.72    3.01    0.00   10.92     7.5     7.1    7.25    6.64    6.43    6.33    6.33    6.33   22.59    0.46    0.51    0.36    0.23    0.20    0.20    0.20    0.20   33.51    7.92    7.65    7.60    6.87    6.63    6.53    6.53    6.52
 2015 166    19    60     2   161.5   118.7    42.8    9.23   34.80    0.83    0.00    0.44    9.23    2.92    3.51    0.00   11.59     7.3     6.9    7.04    6.58    6.48    6.47    6.48    6.47   21.80    0.51    0.52    0.37    0.25    0.19    0.19    0.19    0.19   33.39    7.79    7.38    7.41    6.82    6.67    6.66    6.67    6.67
 2015 167    20    60     2   160.7   120.1    40.6    9.72   37.22    1.01    0.00    0.56    9.72    3.55    3.96    0.00   12.80     7.1     6.7    6.89    6.56    6.51    6.50    6.51    6.50   20.49    0.53    0.53    0.38    0.23    0.19    0.19    0.19    0.19   33.29    7.66    7.18    7.27    6.80    6.70    6.69    6.70    6.70
 2015 168    21    60     2   160.3   122.4    37.9   10.21   40.03    1.11    0.00    0.67   10.21    4.20    3.96    0.00   14.33     7.0     6.5    6.79    6.60    6.54    6.54    6.54    6.50   18.98    0.54    0.53    0.39    0.23    0.19    0.19    0.19    0.19   33.31    7.56    7.05    7.18    6.83    6.73    6.73    6.73    6.69
 2015 169    22    60     2   159.9   124.9    35.0   10.70   42.98    1.16    0.00    0.76   10.70    4.94    3.96    0.00   15.94     6.9     6.4    6.74    6.64    6.57    6.52    6.53    6.48   17.38    0.54    0.52    0.40    0.22    0.19    0.19    0.19    0.19   33.32    7.48    6.96    7.13    6.85    6.76    6.71    6.71    6.67
 2015 170    23    60     2   159.4   129.9    29.5   11.19   48.60    1.16    0.00    0.86   11.19    5.83    3.96    0.00   19.08     6.9     6.4    6.73    6.62    6.55    6.50    6.51    6.46   14.33    0.48    0.51    0.36    0.21    0.19    0.19    0.19    0.19   33.42    7.36    6.89    7.09    6.83    6.73    6.69    6.69    6.64
 2015 171    24    60     2   158.8   134.0    24.8   11.67   53.30    1.16    0.00    0.96   11.67    6.78    3.96    0.00   21.63     6.8     6.4    6.72    6.59    6.53    6.48    6.48    6.44   11.84    0.43    0.46    0.33    0.21    0.18    0.18    0.18    0.18   33.47    7.23    6.81    7.05    6.80    6.71    6.66    6.67    6.62
 2015 172    25    60     2   158.7   137.4    21.3   12.15   57.09    1.16    0.00    1.00   12.15    7.37    3.96    0.00   23.36     6.8     6.4    6.75    6.62    6.55    6.51    6.51    6.46    9.93    0.40    0.42    0.31    0.20    0.18    0.18    0.18    0.18   33.30    7.19    6.80    7.06    6.82    6.74    6.69    6.69    6.65
 2015 173    26    60     2   158.5   140.1    18.5   12.60   60.18    1.16    0.00    1.04   12.60    7.93    3.96    0.00   20.63     9.9     7.0    6.89    6.64    6.58    6.53    6.54    6.49    8.41    0.37    0.39    0.29    0.20    0.18    0.18    0.18    0.18   29.04   10.29    7.39    7.17    6.84    6.76    6.72    6.72    6.67
 2015 174    27    60     2   158.2   140.2    18.0   13.05   60.95    1.16    0.00    1.13   13.05    8.67    3.96    0.00   20.56     9.8     6.9    6.88    6.78    6.73    6.62    6.52    6.47    8.12    0.39    0.40    0.27    0.20    0.18    0.18    0.18    0.18   28.68   10.17    7.33    7.16    6.97    6.92    6.81    6.70    6.65
 2015 175    28    60     2   157.3   140.2    17.1   13.49   61.94    1.16    0.00    1.23   13.49    9.86    3.96    0.00   20.84     9.6     6.8    6.88    6.79    6.76    6.69    6.49    6.44    7.62    0.41    0.40    0.26    0.20    0.18    0.18    0.18    0.18   28.46    9.96    7.25    7.14    6.99    6.95    6.88    6.68    6.63
 2015 176    29    60     2   156.5   140.4    16.1   13.93   63.09    1.16    0.00    1.30   13.93   10.99    3.96    0.00   21.23     9.4     6.8    6.88    6.81    6.77    6.68    6.48    6.43    7.07    0.42    0.38    0.25    0.19    0.18    0.18    0.18    0.18   28.30    9.77    7.19    7.14    7.00    6.96    6.86    6.66    6.61
 2015 177    30    60     2   155.6   140.7    14.9   14.37   64.38    1.16    0.00    1.40   14.37   12.25    3.96    0.00   15.71    11.2     8.8    8.03    7.18    6.87    6.65    6.45    6.41    6.44    0.39    0.36    0.24    0.19    0.18    0.18    0.18    0.18   22.15   11.64    9.14    8.28    7.37    7.06    6.84    6.64    6.59
 2015 178    31    60     2   155.2   140.6    14.6   14.80   64.92    1.40    0.00    1.48   14.80   12.75    3.96    0.00   15.62    10.9     8.6    7.85    7.09    6.85    6.81    6.83    6.79    6.20    0.41    0.37    0.26    0.21    0.20    0.18    0.18    0.19   21.82   11.28    8.94    8.12    7.30    7.05    7.00    7.01    6.97
 2015 179    32    60     2   153.3   139.3    13.9   15.24   65.66    1.54    0.00    1.56   15.24   14.26    4.62    0.00   15.70    10.5     8.3    7.69    7.02    6.87    6.84    6.85    6.86    5.76    0.43    0.39    0.28    0.23    0.20    0.19    0.19    0.19   21.46   10.88    8.69    7.96    7.25    7.07    7.03    7.04    7.05
 2015 180    33    60     2   151.6   138.4    13.1   15.67   66.48    1.61    0.00    1.64   15.67   16.07    4.80    0.00   15.93    10.1     8.1    7.54    6.98    6.90    6.87    6.88    6.89    5.25    0.44    0.40    0.29    0.24    0.20    0.19    0.19    0.19   21.18   10.51    8.46    7.83    7.22    7.09    7.05    7.06    7.07
 2015 181    34    60     2   150.1   137.9    12.2   16.11   67.48    1.62    0.00    1.72   16.11   17.88    4.80    0.00   12.38    10.8     9.4    8.35    7.22    6.97    6.85    6.86    6.87    4.73    0.41    0.41    0.30    0.23    0.20    0.19    0.19    0.19   17.11   11.24    9.76    8.65    7.45    7.17    7.04    7.04    7.05
 2015 182    35    60     2   148.3   136.3    12.0   16.54   67.93    1.99    0.00    1.79   16.54   18.48    6.01    0.00   12.36    10.4     9.0    8.14    7.18    6.95    6.92    6.93    6.94    4.53    0.43    0.42    0.32    0.25    0.21    0.19    0.19    0.19   16.89   10.84    9.41    8.46    7.42    7.16    7.10    7.11    7.12
 2015 183    36   100     3   177.6   134.5    43.1   16.99   68.59    2.20    0.00    8.16   16.99   20.40    6.67    0.00   12.40     9.9     8.6    7.93    7.12    6.98    6.94    6.95    6.96   22.15    0.45    0.44    0.33    0.26    0.21    0.19    0.19    0.19   34.55   10.38    9.06    8.27    7.38    7.19    7.13    7.14    7.15
[...]
 2017 141    34   120     3   128.3   110.7    17.6   11.53   60.46    6.14    0.00   55.01   11.53   21.33   19.38    0.00   12.86    11.8     9.8    9.55    9.70   10.17    9.87    9.66    9.88   12.05    0.84    0.50    0.34    0.29    0.26    0.23    0.21    0.21   24.90   12.68   10.25    9.89    9.99   10.43   10.10    9.87   10.09
 2017 142    35   120     3   125.5   109.5    16.1   11.86   61.42    6.39    0.00   55.05   11.86   24.08   19.38    0.00   10.86    11.5    10.4    9.71    9.66   10.21   10.10    9.84    9.95   10.72    0.79    0.50    0.34    0.30    0.27    0.24    0.21    0.21   21.58   12.32   10.88   10.06    9.96   10.48   10.34   10.05   10.15
 2017 143    36   120     3   121.3   105.8    15.5   12.18   62.00    6.78    0.00   55.11   12.18   25.01   22.53    0.00   10.91    10.9     9.8    9.23    9.22    9.75    9.78    9.70    9.87   10.19    0.77    0.51    0.35    0.31    0.29    0.25    0.22    0.21   21.10   11.69   10.31    9.58    9.53   10.04   10.03    9.92   10.07
 2017 144    37   120     3   116.7   102.6    14.2   12.51   62.80    7.02    0.00   55.17   12.51   27.76   24.34    0.00   10.87    10.1     9.2    8.81    8.90    9.43    9.59    9.63    9.85    9.11    0.71    0.50    0.35    0.31    0.29    0.26    0.23    0.21   19.98   10.86    9.73    9.16    9.21    9.72    9.85    9.86   10.06
 2017 145    38   120     3   111.2    99.0    12.2   12.84   63.71    7.13    0.00   55.23   12.84   32.54   25.19    0.00   10.53     9.1     8.6    8.42    8.65    9.23    9.48    9.61    9.86    7.56    0.60    0.50    0.35    0.32    0.29    0.26    0.23    0.21   18.09    9.70    9.11    8.77    8.97    9.52    9.74    9.84   10.07
 2017 146    39   120     3   107.4    97.5     9.9   13.20   65.36    7.18    0.00   55.28   13.20   36.35   25.49    0.00   10.91     8.5     8.1    8.15    8.50    9.12    9.42    9.63    9.88    5.69    0.49    0.49    0.35    0.32    0.30    0.27    0.22    0.21   16.59    8.97    8.62    8.50    8.81    9.41    9.69    9.86   10.09
 2017 147    40   120     3   104.0    95.9     8.0   13.56   66.76    7.20    0.00   55.34   13.56   40.01   25.49    0.00    9.85     8.8     7.8    7.92    8.39    9.10    9.45    9.66    9.88    4.25    0.45    0.45    0.34    0.32    0.30    0.27    0.22    0.21   14.10    9.28    8.27    8.26    8.71    9.39    9.72    9.88   10.08
 2017 148    41   120     3   101.1    93.5     7.7   13.91   67.29    7.21    0.00   55.38   13.91   42.60   26.06    0.00    9.63     8.1     7.2    7.57    8.25    9.02    9.42    9.69    9.93    3.97    0.47    0.41    0.32    0.31    0.30    0.28    0.22    0.21   13.61    8.61    7.59    7.89    8.57    9.32    9.69    9.90   10.14
 2017 149    42   120     3    97.5    90.5     6.9   14.25   67.90    7.21    0.00   55.43   14.25   46.56   26.06    0.00    9.09     7.1     6.7    7.29    8.14    9.02    9.43    9.69    9.93    3.38    0.48    0.38    0.30    0.31    0.30    0.27    0.22    0.21   12.47    7.58    7.08    7.59    8.45    9.32    9.70    9.90   10.14
 2017 150    43   120     3    93.8    87.8     6.0   14.60   68.55    7.21    0.00   55.47   14.60   50.54   26.06    0.00    8.20     6.5     6.2    7.04    8.06    9.02    9.44    9.69    9.93    2.67    0.44    0.36    0.29    0.30    0.30    0.26    0.21    0.21   10.88    6.94    6.58    7.33    8.36    9.32    9.70    9.90   10.13
 2017 151    44   120     3    90.0    84.9     5.1   14.94   69.15    7.21    0.00   55.51   14.94   54.61   26.06    0.00    7.28     5.8     5.8    6.78    7.97    9.04    9.45    9.69    9.92    2.05    0.41    0.34    0.28    0.29    0.29    0.25    0.21    0.21    9.33    6.17    6.10    7.06    8.25    9.33    9.70    9.90   10.13
 2017 152    45   120     3    86.1    82.0     4.2   15.29   69.83    7.21    0.00   55.56   15.29   58.79   26.06    0.00    5.39     5.7     5.6    6.52    7.87    9.06    9.46    9.69    9.92    1.34    0.38    0.32    0.27    0.27    0.27    0.24    0.21    0.21    6.74    6.06    5.90    6.80    8.14    9.34    9.70    9.90   10.13
 2017 153    46   120     3    84.7    80.6     4.1   15.63   70.20    7.21    0.00   55.58   15.63   60.59   26.06    0.00    5.16     5.4     5.2    6.29    7.77    9.09    9.48    9.70    9.93    1.26    0.41    0.31    0.27    0.26    0.27    0.24    0.21    0.21    6.43    5.84    5.48    6.56    8.03    9.35    9.71    9.91   10.14
 2017 154    47   120     3    82.6    78.8     3.9   15.97   70.57    7.21    0.00   55.61   15.97   62.93   26.06    0.00    4.73     5.0     4.5    6.24    7.69    9.11    9.50    9.72    9.95    1.10    0.43    0.30    0.26    0.26    0.26    0.23    0.21    0.21    5.83    5.47    4.84    6.50    7.95    9.37    9.73    9.93   10.16
 2017 155    48   120     3    79.6    76.0     3.5   16.32   70.96    7.21    0.00   55.65   16.32   66.30   26.06    0.00    4.01     4.3     4.1    5.89    7.59    9.13    9.51    9.72    9.95    0.83    0.45    0.29    0.26    0.25    0.25    0.23    0.21    0.21    4.84    4.76    4.40    6.15    7.84    9.38    9.74    9.93   10.16
 2017 156    49   120     3    76.2    73.1     3.1   16.66   71.43    7.21    0.00   55.69   16.66   70.00   26.06    0.00    3.16     3.5     3.6    5.59    7.49    9.14    9.51    9.73    9.95    0.51    0.42    0.29    0.25    0.24    0.24    0.23    0.21    0.21    3.67    3.95    3.93    5.84    7.73    9.39    9.74    9.94   10.16
 2017 157    50   120     3    74.0    71.0     2.9   17.02   71.88    7.21    0.00   55.72   17.02   72.51   26.06    0.00    2.37     3.2     3.3    5.30    7.39    9.18    9.55    9.76    9.98    0.43    0.39    0.28    0.25    0.24    0.24    0.22    0.21    0.21    2.80    3.56    3.62    5.55    7.63    9.42    9.77    9.97   10.19
 2017 158    51   120     3    72.7    69.8     2.9   17.38   72.22    7.21    0.00   55.76   17.38   74.09   26.06    0.00    2.25     2.7     3.1    5.15    7.31    9.19    9.55    9.76    9.99    0.42    0.41    0.27    0.25    0.23    0.23    0.22    0.21    0.21    2.67    3.14    3.33    5.40    7.54    9.43    9.78    9.97   10.19
 2017 159    52   120     3    71.0    68.1     2.8   17.75   72.63    7.21    0.00   55.80   17.75   76.15   26.06    0.00    1.98     2.2     2.8    4.91    7.23    9.21    9.56    9.77    9.99    0.40    0.39    0.27    0.24    0.23    0.23    0.22    0.21    0.21    2.38    2.59    3.02    5.15    7.45    9.44    9.78    9.98   10.20
 2017 160    53   120     3    69.4    66.6     2.8   18.13   73.05    7.21    0.00   55.84   18.13   78.08   26.06    0.00    1.58     1.9     2.5    4.70    7.15    9.22    9.57    9.77   10.00    0.38    0.36    0.26    0.24    0.22    0.22    0.22    0.21    0.21    1.96    2.24    2.73    4.94    7.38    9.45    9.79    9.98   10.20
 2017 161    54   120     3    68.1    65.5     2.7   18.50   73.49    7.21    0.00   55.87   18.50   79.68   26.06    0.00    1.28     1.6     2.3    4.52    7.09    9.24    9.58    9.78   10.00    0.33    0.34    0.26    0.24    0.22    0.22    0.21    0.21    0.21    1.61    1.97    2.51    4.76    7.31    9.46    9.80    9.99   10.21
 2017 162    55   120     3    67.2    64.7     2.6   18.86   73.89    7.21    0.00   55.91   18.86   80.89   26.06    0.00    0.99     1.5     2.1    4.34    7.02    9.27    9.62    9.81   10.03    0.29    0.33    0.25    0.24    0.22    0.22    0.21    0.21    0.21    1.28    1.85    2.34    4.58    7.24    9.49    9.83   10.02   10.24
 2017 163    56   120     3    66.6    64.0     2.6   19.20   74.18    7.21    0.00   55.94   19.20   81.86   26.06    0.00    0.95     1.3     2.0    4.21    6.96    9.28    9.62    9.82   10.03    0.28    0.35    0.25    0.24    0.22    0.22    0.21    0.21    0.21    1.23    1.61    2.25    4.45    7.18    9.50    9.83   10.02   10.24
 2017 164    57   120     3    65.8    63.3     2.6   19.55   74.53    7.21    0.00   55.98   19.55   82.92   26.06    0.00    0.85     1.1     1.8    4.10    6.91    9.29    9.63    9.82   10.04    0.27    0.34    0.25    0.23    0.22    0.22    0.21    0.21    0.21    1.12    1.43    2.07    4.33    7.13    9.50    9.84   10.03   10.24
 2017 165    58   120     3    65.1    62.6     2.5   19.90   74.87    7.21    0.00   56.02   19.90   83.92   26.06    0.00    0.70     1.0     1.7    4.00    6.86    9.29    9.63    9.82   10.04    0.26    0.33    0.25    0.23    0.21    0.21    0.21    0.21    0.21    0.96    1.28    1.93    4.24    7.08    9.51    9.84   10.03   10.24
 2017 166    59   120     3    64.6    62.2     2.5   20.24   75.24    7.21    0.00   56.06   20.24   84.75   26.06    0.00    0.59     0.9     1.6    3.93    6.82    9.30    9.63    9.82   10.03    0.22    0.31    0.25    0.23    0.21    0.21    0.21    0.21    0.21    0.82    1.18    1.84    4.16    7.04    9.51    9.84   10.03   10.24
 2017 167    60   120     3    64.3    61.9     2.4   20.60   75.61    7.21    0.00   56.10   20.60   85.42   26.06    0.00    0.54     0.8     1.5    3.83    6.78    9.33    9.66    9.85   10.06    0.20    0.30    0.25    0.23    0.22    0.21    0.21    0.21    0.21    0.73    1.11    1.74    4.06    6.99    9.54    9.87   10.06   10.27
 2017 168    61   120     3    64.0    61.7     2.4   20.95   75.97    7.21    0.00   56.13   20.95   85.96   26.06    0.00    0.51     0.8     1.4    3.74    6.74    9.36    9.69    9.88   10.09    0.17    0.29    0.24    0.23    0.21    0.21    0.21    0.21    0.21    0.68    1.06    1.66    3.97    6.95    9.57    9.90   10.09   10.30
 2017 169    62   120     3    63.9    61.6     2.3   21.29   76.32    7.21    0.00   56.17   21.29   86.37   26.06    0.00    0.51     0.8     1.4    3.66    6.70    9.39    9.72    9.91   10.12    0.15    0.28    0.24    0.23    0.22    0.21    0.21    0.21    0.21    0.66    1.06    1.60    3.89    6.91    9.60    9.93   10.12   10.33
 2017 170    63   120     3    63.9    61.6     2.3   21.63   76.63    7.21    0.00   56.21   21.63   86.74   26.06    0.00    0.52     0.8     1.4    3.64    6.67    9.39    9.72    9.91   10.12    0.15    0.27    0.24    0.22    0.22    0.21    0.21    0.21    0.21    0.66    1.05    1.60    3.86    6.89    9.60    9.93   10.11   10.32
 2017 171    64   120     3    63.7    61.4     2.3   21.97   76.94    7.21    0.00   56.24   21.97   87.19   26.06    0.00    0.47     0.7     1.4    3.60    6.65    9.40    9.73    9.91   10.12    0.15    0.27    0.23    0.22    0.22    0.21    0.21    0.21    0.21    0.61    1.02    1.58    3.82    6.87    9.61    9.94   10.12   10.33
 2017 172    65   120     3    63.7    61.4     2.3   22.30   77.25    7.21    0.00   56.29   22.30   87.53   26.06    0.00    0.49     0.7     1.4    3.59    6.63    9.40    9.72    9.91   10.12    0.14    0.27    0.23    0.22    0.22    0.21    0.21    0.21    0.21    0.63    1.00    1.59    3.80    6.85    9.61    9.93   10.12   10.32
 2017 173    66   120     3    63.7    61.4     2.3   22.62   77.57    7.21    0.00   56.29   22.62   87.84   26.06    0.00    0.47     0.8     1.4    3.58    6.62    9.40    9.72    9.90   10.11    0.15    0.26    0.22    0.22    0.22    0.21    0.21    0.21    0.21    0.62    1.04    1.61    3.79    6.84    9.61    9.93   10.11   10.32
 2017 174    67   120     3    63.6    61.3     2.3   22.94   77.87    7.21    0.00   56.30   22.94   88.22   26.06    0.00    0.47     0.7     1.4    3.58    6.61    9.40    9.72    9.90   10.10    0.18    0.26    0.22    0.21    0.22    0.21    0.21    0.21    0.21    0.65    0.95    1.64    3.79    6.83    9.61    9.93   10.11   10.31
 2017 175    68   120     3    63.6    61.2     2.3   23.26   78.16    7.21    0.00   56.30   23.26   88.58   26.06    0.00    0.49     0.6     1.4    3.58    6.61    9.40    9.71    9.89   10.09    0.20    0.26    0.22    0.21    0.22    0.21    0.21    0.21    0.21    0.69    0.91    1.63    3.79    6.82    9.61    9.92   10.10   10.30
 2017 176    69   120     3    63.5    61.2     2.3   23.57   78.45    7.21    0.00   56.31   23.57   88.91   26.06    0.00    0.52     0.6     1.4    3.58    6.60    9.40    9.70    9.88   10.08    0.22    0.26    0.22    0.21    0.21    0.21    0.21    0.21    0.21    0.74    0.88    1.63    3.79    6.81    9.61    9.91   10.09   10.29
 2017 177    70   120     3    63.4    61.1     2.3   23.88   78.75    7.21    0.00   56.31   23.88   89.31   26.06    0.00    0.47     0.6     1.4    3.59    6.60    9.40    9.70    9.87   10.07    0.22    0.26    0.22    0.21    0.21    0.21    0.21    0.21    0.21    0.69    0.86    1.64    3.80    6.81    9.61    9.91   10.08   10.28
 2017 178    71   120     3    63.5    61.1     2.3   24.18   79.04    7.21    0.00   56.32   24.18   89.57   26.06    0.00    0.46     0.6     1.4    3.56    6.58    9.42    9.72    9.90   10.10    0.22    0.26    0.22    0.20    0.21    0.21    0.21    0.21    0.21    0.68    0.88    1.61    3.76    6.79    9.63    9.93   10.11   10.31
 2017 179    72   120     3    63.5    61.1     2.3   24.47   79.31    7.21    0.00   56.32   24.47   89.85   26.06    0.00    0.46     0.6     1.4    3.58    6.58    9.42    9.71    9.89   10.08    0.24    0.26    0.22    0.20    0.21    0.21    0.21    0.21    0.21    0.70    0.86    1.63    3.78    6.79    9.63    9.93   10.10   10.30
 2017 180    73   120     3    63.5    61.1     2.4   24.77   79.59    7.21    0.00   56.33   24.77   90.12   26.06    0.00    0.48     0.6     1.4    3.59    6.58    9.41    9.71    9.88   10.07    0.26    0.26    0.22    0.20    0.21    0.21    0.21    0.21    0.21    0.74    0.84    1.64    3.79    6.79    9.63    9.92   10.09   10.29
 2017 181    74   120     3    63.5    61.2     2.4   25.06   79.87    7.21    0.00   56.33   25.06   90.37   26.06    0.00    0.50     0.6     1.5    3.62    6.59    9.41    9.69    9.87   10.06    0.27    0.26    0.21    0.20    0.21    0.21    0.21    0.21    0.21    0.78    0.83    1.66    3.81    6.80    9.62    9.91   10.08   10.27
 2017 182    75   120     3    63.6    61.2     2.4   25.35   80.17    7.21    0.00   56.34   25.35   90.61   26.06    0.00    0.55     0.5     1.5    3.62    6.59    9.41    9.70    9.87   10.06    0.27    0.26    0.21    0.19    0.20    0.21    0.21    0.21    0.21    0.82    0.81    1.67    3.82    6.79    9.62    9.91   10.08   10.27
 2017 183    76   120     3    63.6    61.2     2.3   25.65   80.48    7.21    0.00   56.34   25.65   90.90   26.06    0.00    0.47     0.6     1.4    3.61    6.58    9.44    9.72    9.89   10.09    0.27    0.26    0.21    0.19    0.20    0.21    0.21    0.21    0.21    0.73    0.83    1.66    3.80    6.79    9.65    9.94   10.10   10.30
 2017 184    77   120     3    63.6    61.3     2.3   25.94   80.75    7.21    0.00   56.35   25.94   91.14   26.06    0.00    0.47     0.6     1.5    3.64    6.59    9.43    9.71    9.88   10.07    0.28    0.26    0.21    0.19    0.20    0.21    0.21    0.21    0.21    0.76    0.82    1.70    3.83    6.80    9.64    9.92   10.09   10.28
 2017 185    78   120     3    63.7    61.3     2.4   26.23   81.03    7.21    0.00   56.35   26.23   91.38   26.06    0.00    0.49     0.6     1.5    3.67    6.60    9.42    9.70    9.87   10.06    0.30    0.26    0.21    0.18    0.20    0.21    0.21    0.21    0.21    0.79    0.81    1.72    3.85    6.80    9.63    9.91   10.08   10.27
 2017 186    79   120     3    63.7    61.3     2.4   26.50   81.30    7.21    0.00   56.36   26.50   91.62   26.06    0.00    0.52     0.5     1.5    3.70    6.61    9.42    9.69    9.86   10.04    0.31    0.26    0.21    0.18    0.20    0.21    0.21    0.21    0.21    0.83    0.80    1.73    3.88    6.81    9.63    9.90   10.06   10.25
 2017 187    80   120     3    63.6    61.3     2.3   26.77   81.58    7.21    0.00   56.36   26.77   91.93   26.06    0.00    0.48     0.5     1.5    3.73    6.62    9.41    9.68    9.84   10.03    0.30    0.26    0.21    0.18    0.19    0.21    0.21    0.21    0.21    0.78    0.80    1.75    3.91    6.82    9.62    9.89   10.05   10.23
 2017 188    81   120     3    63.7    61.4     2.3   27.03   81.85    7.21    0.00   56.37   27.03   92.14   26.06    0.00    0.52     0.5     1.5    3.71    6.62    9.43    9.70    9.87   10.05    0.29    0.26    0.21    0.18    0.19    0.21    0.21    0.21    0.21    0.81    0.78    1.72    3.89    6.81    9.64    9.91   10.07   10.26
 2017 189    82   120     3    63.7    61.4     2.3   27.28   82.11    7.21    0.00   56.37   27.28   92.37   26.06    0.00    0.51     0.5     1.5    3.70    6.61    9.45    9.73    9.89   10.08    0.29    0.26    0.21    0.18    0.19    0.21    0.21    0.21    0.21    0.79    0.77    1.69    3.87    6.80    9.66    9.93   10.09   10.28
 2017 190    83   120     3    63.8    61.5     2.3   27.52   82.37    7.21    0.00   56.37   27.52   92.52   26.06    0.00    0.51     0.6     1.5    3.68    6.60    9.48    9.75    9.91   10.10    0.28    0.25    0.20    0.17    0.19    0.21    0.21    0.21    0.21    0.79    0.82    1.66    3.85    6.79    9.69    9.96   10.12   10.30
 2017 191    84   120     3    63.8    61.5     2.3   27.78   82.62    7.21    0.00   56.38   27.78   92.77   26.06    0.00    0.48     0.6     1.4    3.66    6.59    9.50    9.77    9.94   10.12    0.30    0.25    0.20    0.17    0.19    0.21    0.21    0.20    0.20    0.77    0.81    1.63    3.83    6.78    9.71    9.98   10.14   10.33
 2017 192    85   120     3    63.8    61.5     2.3   28.04   82.87    7.21    0.00   56.39   28.04   93.00   26.06    0.00    0.50     0.6     1.5    3.70    6.60    9.48    9.75    9.91   10.09    0.31    0.25    0.20    0.17    0.19    0.21    0.21    0.20    0.20    0.81    0.82    1.67    3.87    6.78    9.69    9.95   10.11   10.30
 2017 193    86   120     3    63.9    61.6     2.3   28.31   83.16    7.21    0.00   56.39   28.31   93.23   26.06    0.00    0.56     0.6     1.5    3.74    6.61    9.45    9.71    9.87   10.05    0.30    0.25    0.20    0.17    0.19    0.21    0.20    0.20    0.20    0.86    0.83    1.72    3.91    6.80    9.66    9.92   10.07   10.26
 2017 194    87   120     3    63.7    61.5     2.2   28.58   83.45    7.21    0.00   56.40   28.58   93.59   26.06    0.00    0.48     0.6     1.5    3.72    6.60    9.48    9.74    9.90   10.08    0.29    0.24    0.19    0.17    0.18    0.21    0.20    0.20    0.20    0.78    0.80    1.69    3.89    6.78    9.68    9.94   10.10   10.28
 2017 195    88   120     3    63.8    61.6     2.2   28.85   83.74    7.21    0.00   56.40   28.85   93.80   26.06    0.00    0.48     0.6     1.5    3.70    6.58    9.50    9.77    9.92   10.11    0.28    0.24    0.19    0.16    0.18    0.20    0.20    0.20    0.20    0.77    0.82    1.66    3.86    6.77    9.71    9.97   10.12   10.30
 2017 196    89   120     3    63.8    61.6     2.2   29.12   84.00    7.21    0.00   56.41   29.12   94.04   26.06    0.00    0.50     0.6     1.6    3.77    6.61    9.46    9.72    9.87   10.05    0.30    0.24    0.19    0.16    0.18    0.20    0.20    0.20    0.20    0.80    0.84    1.74    3.93    6.79    9.67    9.92   10.07   10.25
 2017 197    90   120     3    63.8    61.6     2.2   29.39   84.27    7.21    0.00   56.42   29.39   94.29   26.06    0.00    0.53     0.6     1.6    3.84    6.63    9.43    9.68    9.83   10.00    0.31    0.25    0.18    0.16    0.18    0.20    0.20    0.19    0.19    0.84    0.84    1.81    3.99    6.81    9.63    9.87   10.02   10.20
 2017 198    91   120     3    63.7    61.5     2.2   29.66   84.54    7.21    0.00   56.43   29.66   94.64   26.06    0.00    0.47     0.6     1.7    3.91    6.66    9.39    9.63    9.77    9.94    0.32    0.25    0.18    0.15    0.17    0.20    0.19    0.19    0.19    0.79    0.84    1.89    4.07    6.83    9.59    9.82    9.96   10.13
