*DSSAT Cropping System Model Ver. 4.7.5.007          -    DEC 15, 2025; 07:06:34

 Unit  Filename
   21  FILEIO
  501  WARNING.OUT
  502  OUTWARN
  503  ERRORO
