*WARNING DETAIL FILE

******************************************************************************
*DSSAT Cropping System Model Ver. 4.7.5.007 -    DEC 15, 2025; 07:06:34

*RUN   0

